data_image0
_chemical_formula_structural       H88C104N16O32S8I8
_chemical_formula_sum              "H88 C104 N16 O32 S8 I8"
_cell_length_a       8.723397747663876
_cell_length_b       8.01620952500926
_cell_length_c       42.22005688187221
_cell_angle_alpha    90.0
_cell_angle_beta     91.14043346755382
_cell_angle_gamma    90.0

_space_group_name_H-M_alt    "P 1"
_space_group_IT_number       1

loop_
  _space_group_symop_operation_xyz
  'x, y, z'

loop_
  _atom_site_type_symbol
  _atom_site_label
  _atom_site_symmetry_multiplicity
  _atom_site_fract_x
  _atom_site_fract_y
  _atom_site_fract_z
  _atom_site_occupancy
  H   H1        1.0  0.8875601594068614  0.7420654327262146  0.38084231309214694  1.0000
  H   H2        1.0  0.6124398400063056  0.2420654330386603  0.11915768693504876  1.0000
  H   H3        1.0  0.11243984074622103  0.2579345678963664  0.6191576869454303  1.0000
  H   H4        1.0  0.38756015897921925  0.7579345675839206  0.8808423128652895  1.0000
  H   H5        1.0  0.9909959292514788  0.018351390334926415  0.36469347085018894  1.0000
  H   H6        1.0  0.5090040713080618  0.5183513900224808  0.13530652917734498  1.0000
  H   H7        1.0  0.009004070901603519  0.9816486102876546  0.6353065291873883  1.0000
  H   H8        1.0  0.4909959288450206  0.4816486093526279  0.8646934708602323  1.0000
  H   H9        1.0  0.9332560911966125  0.13262856549383564  0.31135449173994645  1.0000
  H   H10       1.0  0.5667439093417442  0.63262856518139  0.18864550805068656  1.0000
  H   H11       1.0  0.06674390893528603  0.8673714351287453  0.68864550806073  1.0000
  H   H12       1.0  0.4332560907901542  0.367371435441191  0.8113544917499897  1.0000
  H   H13       1.0  0.7732529011848538  0.9742163644345334  0.272548651336711  1.0000
  H   H14       1.0  0.7267470993746868  0.47421636349950674  0.22745134869082287  1.0000
  H   H15       1.0  0.22674709896822856  0.02578363618804752  0.7274513487008663  1.0000
  H   H16       1.0  0.2732529007783956  0.5257836358756017  0.7725486513467543  1.0000
  H   H17       1.0  0.48879493793022144  0.8670611700349699  0.2248399658467079  1.0000
  H   H18       1.0  0.011205061551949063  0.36706117034741564  0.27516003393501076  1.0000
  H   H19       1.0  0.511205062201677  0.13293883058761102  0.7751600339539685  1.0000
  H   H20       1.0  0.9887949374335757  0.6329388302751653  0.7248399658653275  1.0000
  H   H21       1.0  0.4456114475551191  0.8678411596273693  0.16483843289467787  1.0000
  H   H22       1.0  0.054388553094608945  0.36784115993981503  0.33516156712427986  1.0000
  H   H23       1.0  0.5543885525979633  0.13215883974773926  0.8351615671428994  1.0000
  H   H24       1.0  0.9456114470584733  0.6321588394352935  0.6648384329132974  1.0000
  H   H25       1.0  0.2878211151346352  0.09460369987012332  0.1402601651673651  1.0000
  H   H26       1.0  0.21217888551509287  0.5946036995576776  0.35973983485159267  1.0000
  H   H27       1.0  0.7121788850184471  0.9053963007524576  0.8597398348702123  1.0000
  H   H28       1.0  0.7878211146379895  0.4053963010649033  0.6402601651859846  1.0000
  H   H29       1.0  0.2249228689626461  0.2931022726726053  0.2343553730221141  1.0000
  H   H30       1.0  0.275077131687082  0.7931022723601596  0.26564462699684366  1.0000
  H   H31       1.0  0.7750771311904363  0.7068977279499756  0.7656446270154632  1.0000
  H   H32       1.0  0.7249228684660004  0.206897727014949  0.7343553730407336  1.0000
  H   H33       1.0  0.07457927879795473  0.40838631772118233  0.18926607463530026  1.0000
  H   H34       1.0  0.42542072070539955  0.9083863174087365  0.3107339253833193  1.0000
  H   H35       1.0  0.925420720208754  0.5916136829013986  0.8107339254019389  1.0000
  H   H36       1.0  0.5745792794476827  0.09161368321384433  0.689266074654258  1.0000
  H   H37       1.0  0.09175092173139461  0.3229597619576952  0.1504833661846483  1.0000
  H   H38       1.0  0.40824907889714956  0.8229597616452495  0.34951663359740853  1.0000
  H   H39       1.0  0.908249078400504  0.6770402374174134  0.8495166336160281  1.0000
  H   H40       1.0  0.5917509212347489  0.17704023772985905  0.6504833662032679  1.0000
  H   H41       1.0  0.23233400949764144  0.46372381839603993  0.16614577204992262  1.0000
  H   H42       1.0  0.2676659900057129  0.9637238193310667  0.33385422796869696  1.0000
  H   H43       1.0  0.7676659895090673  0.5362761809790687  0.8338542279873165  1.0000
  H   H44       1.0  0.7323340101473695  0.03627618129151434  0.6661457720688804  1.0000
  H   H45       1.0  0.5831617167147812  0.5678892057146848  0.5233497207425021  1.0000
  H   H46       1.0  0.9168382840668452  0.06788920602713056  0.9766502790771319  1.0000
  H   H47       1.0  0.4168382834383011  0.4321107949078961  0.4766502792950752  1.0000
  H   H48       1.0  0.08316171606505322  0.9321107945954504  0.02334972072354435  1.0000
  H   H49       1.0  0.5488361394793824  0.864027108871259  0.5375966185931076  1.0000
  H   H50       1.0  0.9511638601770542  0.36402710918370473  0.9624033814630892  1.0000
  H   H51       1.0  0.45116386067369996  0.13597289175132193  0.46240338144446963  1.0000
  H   H52       1.0  0.048836139976028085  0.6359728914388761  0.03759661857448803  1.0000
  H   H53       1.0  0.7018555010954936  0.0868013925820129  0.5115407735535494  1.0000
  H   H54       1.0  0.7981444985397593  0.5868013922695672  0.9884592262657464  1.0000
  H   H55       1.0  0.29814449905758883  0.9131986080405681  0.4884592264840278  1.0000
  H   H56       1.0  0.20185550159213925  0.4131986071055414  0.011540773534929938  1.0000
  H   H57       1.0  0.8840160008677367  0.014931232726213169  0.46923326943068294  1.0000
  H   H58       1.0  0.6159839985454303  0.5149312324137674  0.030766730596512845  1.0000
  H   H59       1.0  0.11598399928534575  0.9850687678963678  0.5307667306068944  1.0000
  H   H60       1.0  0.3840160016076521  0.4850687669613411  0.9692332694410644  1.0000
  H   H61       1.0  0.4354283982347259  0.30725982552173303  0.37416604193062025  1.0000
  H   H62       1.0  0.06457160241500215  0.8072598252092873  0.12583395808833744  1.0000
  H   H63       1.0  0.5645716019183564  0.6927401751008478  0.625833958106957  1.0000
  H   H64       1.0  0.9354283977380802  0.1927401754132936  0.8741660419492397  1.0000
  H   H65       1.0  0.6855241318212401  0.1707772065748766  0.38967482300234313  1.0000
  H   H66       1.0  0.8144758675919268  0.6707772075099032  0.1103251770248526  1.0000
  H   H67       1.0  0.31447586833184227  0.8292227928002319  0.6103251770352341  1.0000
  H   H68       1.0  0.1855241325611556  0.3292227931126777  0.8896748230127247  1.0000
  H   H69       1.0  0.680529707985989  0.8907334305226698  0.41646552074262966  1.0000
  H   H70       1.0  0.8194702925523679  0.3907334295876431  0.08353447904800336  1.0000
  H   H71       1.0  0.3194702921459096  0.10926657009991117  0.5835344790580468  1.0000
  H   H72       1.0  0.18052970757953063  0.6092665697874655  0.916465520752673  1.0000
  H   H73       1.0  0.18444566547264152  0.9169376570145862  0.41162259972454984  1.0000
  H   H74       1.0  0.3155543351770866  0.41693765732703186  0.08837740029440791  1.0000
  H   H75       1.0  0.8155543346804409  0.0830623436079948  0.5883774003130275  1.0000
  H   H76       1.0  0.6844456649759958  0.5830623432955491  0.9116225997431695  1.0000
  H   H77       1.0  0.3022175733398503  0.6779921860879405  0.43646578698498956  1.0000
  H   H78       1.0  0.19778242616350414  0.17799218640038625  0.06353421303363009  1.0000
  H   H79       1.0  0.6977824256668584  0.32200781328716804  0.5635342130522497  1.0000
  H   H80       1.0  0.8022175739895783  0.8220078142221947  0.9364657870039472  1.0000
  H   H81       1.0  0.4824717078155355  0.7167030405175647  0.45574683208534306  1.0000
  H   H82       1.0  0.017528291687818824  0.216703039582538  0.044253167933276515  1.0000
  H   H83       1.0  0.5175282923375469  0.28329696010501626  0.5442531679522343  1.0000
  H   H84       1.0  0.9824717073188899  0.7832969597925706  0.9557468321039627  1.0000
  H   H85       1.0  0.4762321785674221  0.6168469504911409  0.4183415719350053  1.0000
  H   H86       1.0  0.023767820914748352  0.11684695080358667  0.08165842784671332  1.0000
  H   H87       1.0  0.5237678215644764  0.38315305013143997  0.581658427865671  1.0000
  H   H88       1.0  0.9762321780707764  0.8831530498189943  0.9183415719536249  1.0000
  C   C1        1.0  0.6388561390625387  0.6565857832906282  0.2855630679364339  1.0000
  C   C2        1.0  0.861143861497002  0.15658578360307393  0.21443693209110007  1.0000
  C   C3        1.0  0.3611438610905437  0.34341421608448036  0.7144369321011436  1.0000
  C   C4        1.0  0.13885613865608043  0.8434142157720347  0.7855630679464772  1.0000
  C   C5        1.0  0.7370895593962514  0.7705361955334948  0.30511461536932577  1.0000
  C   C6        1.0  0.7629104411632892  0.27053619584594063  0.19488538465820812  1.0000
  C   C7        1.0  0.262910440756831  0.22946380384161366  0.6948853846682516  1.0000
  C   C8        1.0  0.23708955898979317  0.7294638047766403  0.8051146153793692  1.0000
  C   C9        1.0  0.7695199012534908  0.7082578583165765  0.33544944090497647  1.0000
  C   C10       1.0  0.7304800981596761  0.2082578586290222  0.16455055912221925  1.0000
  C   C11       1.0  0.2304800988995916  0.2917421423060044  0.6645505591326009  1.0000
  C   C12       1.0  0.2695199019934063  0.7917421419935587  0.835449440915358  1.0000
  C   C13       1.0  0.8599810115492728  0.7929034701712911  0.3575009204734649  1.0000
  C   C14       1.0  0.6400189890102679  0.2929034704837368  0.14249907955406904  1.0000
  C   C15       1.0  0.14001898860380962  0.20709653045128984  0.6424990795641123  1.0000
  C   C16       1.0  0.3599810111216306  0.7070965301388442  0.8575009202466073  1.0000
  C   C17       1.0  0.918511164357264  0.9476111841015313  0.3482402218383057  1.0000
  C   C18       1.0  0.5814888362022765  0.4476111844139771  0.15175977818922823  1.0000
  C   C19       1.0  0.08148883579581831  0.05238881527357717  0.6517597781992717  1.0000
  C   C20       1.0  0.4185111639508058  0.5523888162086038  0.8482402218483491  1.0000
  C   C21       1.0  0.8870204095301172  0.011868609434817648  0.31801163668985943  1.0000
  C   C22       1.0  0.6129795898830497  0.511868609122372  0.18198836333733634  1.0000
  C   C23       1.0  0.11297959062296523  0.9881313911877633  0.6819883633477178  1.0000
  C   C24       1.0  0.3870204102700326  0.48813139025273666  0.818011636700241  1.0000
  C   C25       1.0  0.7962333436012703  0.9241048598952935  0.2960766522464899  1.0000
  C   C26       1.0  0.7037666557907128  0.4241048602077392  0.20392334754380495  1.0000
  C   C27       1.0  0.2037666553842545  0.07589513947981508  0.7039233475538483  1.0000
  C   C28       1.0  0.29623334434118576  0.5758951404148417  0.7960766522568715  1.0000
  C   C29       1.0  0.4210568605694332  0.9598060312665183  0.2119013171071807  1.0000
  C   C30       1.0  0.07894314005911095  0.4598060303314916  0.2880986826748761  1.0000
  C   C31       1.0  0.5789431395624653  0.040193969356062675  0.7880986826934958  1.0000
  C   C32       1.0  0.9210568600727876  0.540193969043617  0.7119013171258003  1.0000
  C   C33       1.0  0.3951585856325751  0.964097937546246  0.1794364924460658  1.0000
  C   C34       1.0  0.10484141387077918  0.46409793661121923  0.32056350757255375  1.0000
  C   C35       1.0  0.6048414145205073  0.035902063076335006  0.8205635075915115  1.0000
  C   C36       1.0  0.8951585851359296  0.5359020627638893  0.6794364924646854  1.0000
  C   C37       1.0  0.3077537171721746  0.091667771121433  0.1658321235093895  1.0000
  C   C38       1.0  0.19224628347755346  0.5916677720564597  0.33416787650956825  1.0000
  C   C39       1.0  0.6922462829809078  0.9083322282536757  0.8341678765281878  1.0000
  C   C40       1.0  0.807753716675529  0.4083322285661213  0.665832123528009  1.0000
  C   C41       1.0  0.24598193897660897  0.21619400972406566  0.1850727987143376  1.0000
  C   C42       1.0  0.2540180605267454  0.71619400941162  0.314927201304282  1.0000
  C   C43       1.0  0.7540180611764734  0.7838059908985153  0.8149272013232396  1.0000
  C   C44       1.0  0.745981939626337  0.2838059899634886  0.6850727987332954  1.0000
  C   C45       1.0  0.2711959899123888  0.20433834905258513  0.21761814104159752  1.0000
  C   C46       1.0  0.22880401073733925  0.7043383487401395  0.28238185897736023  1.0000
  C   C47       1.0  0.7288040102406936  0.7956616503225233  0.7823818589959797  1.0000
  C   C48       1.0  0.7711959894157431  0.29566165063496913  0.717618141060217  1.0000
  C   C49       1.0  0.15520565095101016  0.36006864603463135  0.1719788650990189  1.0000
  C   C50       1.0  0.34479434855234414  0.860068646969658  0.32802113491960067  1.0000
  C   C51       1.0  0.8447943492020723  0.6399313533404772  0.8280211349385584  1.0000
  C   C52       1.0  0.6552056504543645  0.13993135365292292  0.6719788651176385  1.0000
  C   C53       1.0  0.9348944412017621  0.6821359001333841  0.4473461398607184  1.0000
  C   C54       1.0  0.5651055593365947  0.18213589919835751  0.05265385992991454  1.0000
  C   C55       1.0  0.06510555893013638  0.3178641004891968  0.552653859939958  1.0000
  C   C56       1.0  0.43489444079530387  0.817864100176751  0.9473461398707619  1.0000
  C   C57       1.0  0.8335340855007581  0.7513625861710547  0.47207426165705885  1.0000
  C   C58       1.0  0.6664659150375987  0.25136258523602806  0.02792573813357416  1.0000
  C   C59       1.0  0.16646591463114035  0.24863741445152626  0.5279257381436175  1.0000
  C   C60       1.0  0.3335340850942999  0.7486374141390805  0.9720742616671022  1.0000
  C   C61       1.0  0.7500001921163141  0.6280111272408618  0.48749357235441726  1.0000
  C   C62       1.0  0.7499998072968529  0.12801112755330762  0.012506427672778483  1.0000
  C   C63       1.0  0.24999980801558447  0.3719888721342467  0.5125064274462591  1.0000
  C   C64       1.0  0.2500001917098558  0.8719888730692733  0.9874935723644607  1.0000
  C   C65       1.0  0.6481178678481078  0.6638971989687174  0.5113305167185007  1.0000
  C   C66       1.0  0.8518821318083288  0.16389719928116303  0.9886694833376962  1.0000
  C   C67       1.0  0.3518821323049746  0.33610280165386364  0.4886694833190766  1.0000
  C   C68       1.0  0.14811786834475346  0.836102801341418  0.011330516699881133  1.0000
  C   C69       1.0  0.6305486655909128  0.8319772679584863  0.5194521628567392  1.0000
  C   C70       1.0  0.8694513352118977  0.33197726827093205  0.9805478371997959  1.0000
  C   C71       1.0  0.3694513345621695  0.16802273266409465  0.48054783718083804  1.0000
  C   C72       1.0  0.13054866494118483  0.6680227323516489  0.019452162837781513  1.0000
  C   C73       1.0  0.7148352911461319  0.9569202359379619  0.5045852709787902  1.0000
  C   C74       1.0  0.7851647096566785  0.4569202350029353  0.9954147290777449  1.0000
  C   C75       1.0  0.2851647090069505  0.04307976468461895  0.49541472905878703  1.0000
  C   C76       1.0  0.21483529049640382  0.5430797643721732  0.004585270959832502  1.0000
  C   C77       1.0  0.8175438595615  0.9179370732567647  0.48068549617894285  1.0000
  C   C78       1.0  0.6824561409980406  0.41793707232173793  0.01931450384859108  1.0000
  C   C79       1.0  0.18245614059158233  0.08206292736581633  0.5193145038586345  1.0000
  C   C80       1.0  0.3175438591550418  0.5820629270533706  0.9806854961889863  1.0000
  C   C81       1.0  0.442550653298231  0.1869899215238225  0.38597130602796387  1.0000
  C   C82       1.0  0.0574493473514971  0.6869899212113768  0.11402869399099388  1.0000
  C   C83       1.0  0.5574493468548514  0.8130100790987584  0.6140286940096135  1.0000
  C   C84       1.0  0.9425506528015852  0.3130100794112042  0.8859713060465835  1.0000
  C   C85       1.0  0.5781495953005211  0.10855386792038657  0.3948851857869324  1.0000
  C   C86       1.0  0.921850404112646  0.608553867607941  0.10511481424026335  1.0000
  C   C87       1.0  0.42185040370618765  0.8914461327021944  0.6051148142503068  1.0000
  C   C88       1.0  0.07814959604043652  0.3914461330146401  0.894885185797314  1.0000
  C   C89       1.0  0.5739769180131122  0.9538564936638387  0.40981973201365646  1.0000
  C   C90       1.0  0.9260230814000548  0.4538564927288121  0.09018026801353934  1.0000
  C   C91       1.0  0.4260230821399703  0.046143506958742156  0.5901802680239209  1.0000
  C   C92       1.0  0.07397691875302757  0.5461435066462964  0.909819732024038  1.0000
  C   C93       1.0  0.4325238938456114  0.8796921759591674  0.41658326098262816  1.0000
  C   C94       1.0  0.06747610680411661  0.3796921750241407  0.08341673903632964  1.0000
  C   C95       1.0  0.5674761063074709  0.12030782466341358  0.5834167390549493  1.0000
  C   C96       1.0  0.9325238933489659  0.6203078243509679  0.9165832610012478  1.0000
  C   C97       1.0  0.2993453855047711  0.9637678625910262  0.4073842900443957  1.0000
  C   C98       1.0  0.200654615144957  0.4637678616559995  0.09261570997456199  1.0000
  C   C99       1.0  0.7006546146483112  0.03623213803155481  0.5926157099931815  1.0000
  C   C100      1.0  0.7993453850081254  0.5362321377191092  0.9073842900630152  1.0000
  C   C101      1.0  0.4217223635420706  0.713594304409526  0.4327195827020449  1.0000
  C   C102      1.0  0.07827763710765746  0.2135943047219717  0.0672804173169128  1.0000
  C   C103      1.0  0.5782776366110118  0.286405696213055  0.5672804173355324  1.0000
  C   C104      1.0  0.9217223630454249  0.7864056959006093  0.9327195827206646  1.0000
  N   N1        1.0  0.6038560425658945  0.5158032854680433  0.3030329637694109  1.0000
  N   N2        1.0  0.8961439568472725  0.0158032845330167  0.1969670362577848  1.0000
  N   N3        1.0  0.3961439575871879  0.4841967151545376  0.6969670362681664  1.0000
  N   N4        1.0  0.10385604330580991  0.9841967148420918  0.8030329637797925  1.0000
  N   N5        1.0  0.35581613467162937  0.07822414796465485  0.2302081959809491  1.0000
  N   N6        1.0  0.14418386597809868  0.5782241488996815  0.2697918040380087  1.0000
  N   N7        1.0  0.644183865481453  0.9217758514104537  0.7697918040566283  1.0000
  N   N8        1.0  0.8558161341749837  0.42177585172289944  0.7302081959995687  1.0000
  N   N9        1.0  0.9238668792458986  0.5106414830137902  0.4466759651895756  1.0000
  N   N10       1.0  0.5761331213136421  0.010641483326235967  0.053324034837958265  1.0000
  N   N11       1.0  0.07613312090718385  0.4893585163613183  0.5533240348480016  1.0000
  N   N12       1.0  0.4238668788394403  0.9893585172963449  0.946675965199619  1.0000
  N   N13       1.0  0.30743996739063345  0.1115363361212751  0.3918502823951965  1.0000
  N   N14       1.0  0.19256003211272085  0.6115363358088295  0.10814971762342313  1.0000
  N   N15       1.0  0.6925600327624488  0.8884636645013059  0.6081497176423809  1.0000
  N   N16       1.0  0.8074399680403616  0.38846366481375155  0.8918502824141542  1.0000
  O   O1        1.0  0.5953787928268541  0.6810365613533154  0.25795706678398483  1.0000
  O   O2        1.0  0.9046212065863127  0.18103656041828867  0.2420429332432109  1.0000
  O   O3        1.0  0.4046212073262282  0.3189634392692656  0.7420429332535925  1.0000
  O   O4        1.0  0.09537879242039592  0.8189634389568199  0.7579570667940283  1.0000
  O   O5        1.0  0.773799737465353  0.3759657592029468  0.3453165972259716  1.0000
  O   O6        1.0  0.726200261947814  0.8759657588905011  0.1546834028012242  1.0000
  O   O7        1.0  0.2262002626877294  0.6240342414196343  0.6546834028116058  1.0000
  O   O8        1.0  0.2737997370377109  0.12403424048460752  0.8453165969991141  1.0000
  O   O9        1.0  0.549042660691622  0.5372581949815022  0.36242794261839206  1.0000
  O   O10       1.0  0.950957338721545  0.03725819529394785  0.13757205740880377  1.0000
  O   O11       1.0  0.4509573383150867  0.46274180564107886  0.6375720574188471  1.0000
  O   O12       1.0  0.04904266143153744  0.9627418053286332  0.8624279426287736  1.0000
  O   O13       1.0  0.37203036173590814  0.06433767086438577  0.2618462099987062  1.0000
  O   O14       1.0  0.12796963891381993  0.5643376705519401  0.23815379002025144  1.0000
  O   O15       1.0  0.6279696384171742  0.9356623285107228  0.738153790038871  1.0000
  O   O16       1.0  0.8720303612392624  0.4356623288231685  0.761846210017326  1.0000
  O   O17       1.0  0.015342705312442998  0.7648531853953651  0.4293710448110875  1.0000
  O   O18       1.0  0.48465729531610113  0.26485318570781086  0.07062895497096926  1.0000
  O   O19       1.0  0.9846572948194555  0.2351468152272158  0.5706289549895888  1.0000
  O   O20       1.0  0.5153427048157974  0.7351468149147701  0.929371044829707  1.0000
  O   O21       1.0  0.6670943569103618  0.36197174000347104  0.4532465253035468  1.0000
  O   O22       1.0  0.8329056425028052  0.8619717396910253  0.04675347472364895  1.0000
  O   O23       1.0  0.3329056432427206  0.6380282606191099  0.5467534747340306  1.0000
  O   O24       1.0  0.1670943576502772  0.13802826093155565  0.9532465253139283  1.0000
  O   O25       1.0  0.8679511853265327  0.3230946898181292  0.49453423108322986  1.0000
  O   O26       1.0  0.6320488140866342  0.8230946895056835  0.00546576894396593  1.0000
  O   O27       1.0  0.1320488148265497  0.6769053108044518  0.5054657689543475  1.0000
  O   O28       1.0  0.36795118606644817  0.17690531111689745  0.9945342310936114  1.0000
  O   O29       1.0  0.17766607764857262  0.18171591890848401  0.3803662869699967  1.0000
  O   O30       1.0  0.3223339218547817  0.6817159185960383  0.11963371304862287  1.0000
  O   O31       1.0  0.8223339225045098  0.818284081714097  0.6196337130675805  1.0000
  O   O32       1.0  0.6776660782983006  0.3182840820265426  0.8803662869889545  1.0000
  S   S1        1.0  0.6729334343821686  0.5170713648474915  0.34023836592768403  1.0000
  S   S2        1.0  0.8270665650309984  0.01707136391246484  0.15976163409951172  1.0000
  S   S3        1.0  0.3270665657709138  0.48292863577508943  0.6597616341098933  1.0000
  S   S4        1.0  0.172933435122084  0.9829286354626438  0.8402383659380656  1.0000
  S   S5        1.0  0.7948581620673636  0.43115858551564085  0.47134199044741787  1.0000
  S   S6        1.0  0.705141838492177  0.9311585864506675  0.028658009580116075  1.0000
  S   S7        1.0  0.2051418380857188  0.5688414138594677  0.5286580095901594  1.0000
  S   S8        1.0  0.29485816166090534  0.06884141417191343  0.9713419904574612  1.0000
  I   I1        1.0  0.4904999869298143  0.29538231412398924  0.28414164363301786  1.0000
  I   I2        1.0  0.009500013719913792  0.7953823138115435  0.21585835638593984  1.0000
  I   I3        1.0  0.5095000132232681  0.7046176864985917  0.7158583564045594  1.0000
  I   I4        1.0  0.9904999864119847  0.20461768681103742  0.7841416434147365  1.0000
  I   I5        1.0  0.04921039949028524  0.3489927965669994  0.4152565843226893  1.0000
  I   I6        1.0  0.45078960115944283  0.8489927975020262  0.08474341569626843  1.0000
  I   I7        1.0  0.950789600662797  0.6510072028081092  0.584743415714888  1.0000
  I   I8        1.0  0.5492103989936394  0.15100720312055488  0.9152565843413087  1.0000
