data_image0
_chemical_formula_structural       H22C26N4O10S2I2
_chemical_formula_sum              "H22 C26 N4 O10 S2 I2"
_cell_length_a       8.356878314911484
_cell_length_b       8.968540388031986
_cell_length_c       11.474705146330693
_cell_angle_alpha    92.38423524050839
_cell_angle_beta     102.39651094924896
_cell_angle_gamma    115.8126351366232

_space_group_name_H-M_alt    "P 1"
_space_group_IT_number       1

loop_
  _space_group_symop_operation_xyz
  'x, y, z'

loop_
  _atom_site_type_symbol
  _atom_site_label
  _atom_site_symmetry_multiplicity
  _atom_site_fract_x
  _atom_site_fract_y
  _atom_site_fract_z
  _atom_site_occupancy
  H   H1        1.0  0.8915721324994588  0.0009688551069017927  0.6220005051505801  1.0000
  H   H2        1.0  0.10842786723378295  0.9990311442907789  0.3779994950511148  1.0000
  H   H3        1.0  0.7170172024560394  0.036906954460525165  0.4277293679785536  1.0000
  H   H4        1.0  0.2829827990537479  0.9630930461745667  0.5722706322242324  1.0000
  H   H5        1.0  0.53889036303904  0.796630204036297  0.2601244085564015  1.0000
  H   H6        1.0  0.46110963669420174  0.20336979536138347  0.7398755916452936  1.0000
  H   H7        1.0  0.5335132531553296  0.5197722318984193  0.28206239770475966  1.0000
  H   H8        1.0  0.46648674657791206  0.4802277674992612  0.7179376024969353  1.0000
  H   H9        1.0  0.6142221035451055  0.886225504774213  0.7062581914973847  1.0000
  H   H10       1.0  0.3857778961881362  0.11377449462346748  0.2937418087043103  1.0000
  H   H11       1.0  0.3729933451644819  0.7052843214206925  0.7988194336918693  1.0000
  H   H12       1.0  0.6270066545687597  0.2947156779769879  0.2011805665098256  1.0000
  H   H13       1.0  0.7427431862314136  0.9754192859612708  0.14991857347559306  1.0000
  H   H14       1.0  0.2572568140843083  0.0245807146762283  0.8500814267319805  1.0000
  H   H15       1.0  0.969531429591988  0.15142074916218046  0.04034700086426423  1.0000
  H   H16       1.0  0.030468570141253665  0.8485792502355001  0.9596529993374308  1.0000
  H   H17       1.0  0.1735875535561137  0.6235209385363492  0.9159761021060567  1.0000
  H   H18       1.0  0.8264124467596083  0.3764790621011499  0.0840238981015169  1.0000
  H   H19       1.0  0.18668098629993019  0.5254790760550774  0.04950998942747029  1.0000
  H   H20       1.0  0.8133190140157919  0.4745209245824218  0.9504900107801034  1.0000
  H   H21       1.0  0.28773752319848755  0.49341392798473416  0.933598576547653  1.0000
  H   H22       1.0  0.7122624771172343  0.5065860726527648  0.06640142365992055  1.0000
  C   C1        1.0  0.7211659478449466  0.450863684447842  0.495940780922853  1.0000
  C   C2        1.0  0.2788340518882951  0.5491363149498386  0.5040592192788421  1.0000
  C   C3        1.0  0.7082950688738935  0.6054741520187801  0.4636973603515801  1.0000
  C   C4        1.0  0.2917049308593482  0.39452584737890045  0.536302639850115  1.0000
  C   C5        1.0  0.80540979339659  0.7410925614186799  0.5575370892517157  1.0000
  C   C6        1.0  0.19459020691913204  0.2589074392188193  0.4424629109558579  1.0000
  C   C7        1.0  0.8135143459771405  0.8976019815519626  0.5475072892775186  1.0000
  C   C8        1.0  0.1864856533973838  0.10239801766122425  0.45249271002120284  1.0000
  C   C9        1.0  0.7154920583540557  0.9161132453575223  0.43850111847895723  1.0000
  C   C10       1.0  0.2845079410204686  0.08388675385566462  0.5614988808197642  1.0000
  C   C11       1.0  0.616439786342775  0.7813963524275515  0.34387494370439475  1.0000
  C   C12       1.0  0.3835602130317493  0.21860364678563532  0.6561250555943265  1.0000
  C   C13       1.0  0.6126650227072965  0.6252453786364977  0.3550357675762993  1.0000
  C   C14       1.0  0.3873349776084254  0.3747546220010013  0.6449642326312743  1.0000
  C   C15       1.0  0.635406846326295  0.9002322125235394  0.8036812933123597  1.0000
  C   C16       1.0  0.36459315363070965  0.099767787929466  0.19631870599224038  1.0000
  C   C17       1.0  0.503012579453986  0.7981242788954155  0.8578551092993117  1.0000
  C   C18       1.0  0.4969874220558012  0.2018757217396764  0.14214489090347407  1.0000
  C   C19       1.0  0.54096040249641  0.8199706960183976  0.9843943518076712  1.0000
  C   C20       1.0  0.45903959781931186  0.18002930461910147  0.01560564839990246  1.0000
  C   C21       1.0  0.7095850981584299  0.9504413659125442  0.051993829240769604  1.0000
  C   C22       1.0  0.29041490157481165  0.04955863348513614  0.9480061709609253  1.0000
  C   C23       1.0  0.8360027601493637  0.049395833672262135  0.9936029949822957  1.0000
  C   C24       1.0  0.16399723958387805  0.9506041657254184  0.006397005219399491  1.0000
  C   C25       1.0  0.25753384723599054  0.5830356140975657  0.9813056869440626  1.0000
  C   C26       1.0  0.7424661524972511  0.4169643853001148  0.01869431325763243  1.0000
  N   N1        1.0  0.8329360364403342  0.48483705888041095  0.6121964890384295  1.0000
  N   N2        1.0  0.1670639638753876  0.5151629417570881  0.3878035111691441  1.0000
  N   N3        1.0  0.7997956452821487  0.020689981501408345  0.8712048283279197  1.0000
  N   N4        1.0  0.20020435445109286  0.9793100178962723  0.12879517187377537  1.0000
  O   O1        1.0  0.6460529167305596  0.3135304500108393  0.4312161849913968  1.0000
  O   O2        1.0  0.35394708322644475  0.686469550442166  0.5687838143132031  1.0000
  O   O3        1.0  0.10677722843941437  0.7667062634629389  0.7149169002501123  1.0000
  O   O4        1.0  0.8932227712938272  0.23329373593474168  0.2850830999515826  1.0000
  O   O5        1.0  0.8231047515176666  0.670876687368966  0.7831141048525078  1.0000
  O   O6        1.0  0.17689524821557512  0.3291233120287146  0.2168858953491872  1.0000
  O   O7        1.0  0.9351904449067147  0.11099375022003041  0.8190132640686033  1.0000
  O   O8        1.0  0.0648095554090073  0.8890062504174686  0.18098673613897032  1.0000
  O   O9        1.0  0.425961015854883  0.7249973945800248  0.04770699599736127  1.0000
  O   O10       1.0  0.5740389838783587  0.27500260481765576  0.9522930042043337  1.0000
  S   S1        1.0  0.9076770205800463  0.6774073270002938  0.6837724484095455  1.0000
  S   S2        1.0  0.09232297973567549  0.3225926736372052  0.31622755179802803  1.0000
  I   I1        1.0  0.8798501041449799  0.301204851378508  0.7115504223793502  1.0000
  I   I2        1.0  0.12014989558826168  0.6987951480191725  0.2884495778223448  1.0000
