data_image0
_chemical_formula_structural       H22C26N4O8S2Br2
_chemical_formula_sum              "H22 C26 N4 O8 S2 Br2"
_cell_length_a       7.104172481869015
_cell_length_b       8.649767870579593
_cell_length_c       12.110154700582271
_cell_angle_alpha    104.20890144783945
_cell_angle_beta     100.32401245391229
_cell_angle_gamma    89.96193061112128

_space_group_name_H-M_alt    "P 1"
_space_group_IT_number       1

loop_
  _space_group_symop_operation_xyz
  'x, y, z'

loop_
  _atom_site_type_symbol
  _atom_site_label
  _atom_site_symmetry_multiplicity
  _atom_site_fract_x
  _atom_site_fract_y
  _atom_site_fract_z
  _atom_site_occupancy
  H   H1        1.0  0.22634160147305285  0.06570808585000439  0.3555409018647187  1.0000
  H   H2        1.0  0.7736583984825358  0.9342919141548557  0.6444590982669302  1.0000
  H   H3        1.0  0.21479046177122718  0.024710508941145366  0.5510341145082646  1.0000
  H   H4        1.0  0.7852095381843615  0.9752894910637145  0.4489658856233843  1.0000
  H   H5        1.0  0.21215407939704262  0.25837941038224893  0.7184585693041202  1.0000
  H   H6        1.0  0.787845920567753  0.7416205907787919  0.28154143082784844  1.0000
  H   H7        1.0  0.22675079204795076  0.536943039760383  0.6935204570876563  1.0000
  H   H8        1.0  0.773249207907638  0.4630569602444769  0.30647954304399244  1.0000
  H   H9        1.0  0.7220281001430182  0.7253146563166537  0.9560423711828641  1.0000
  H   H10       1.0  0.2779718998125704  0.27468534368820613  0.0439576289487846  1.0000
  H   H11       1.0  0.9731090060952896  0.9237540180296787  0.08721929384465213  1.0000
  H   H12       1.0  0.02689099386029926  0.07624598197518115  0.9127807062869967  1.0000
  H   H13       1.0  0.8776205413964306  0.12204440305747635  0.2567790426950327  1.0000
  H   H14       1.0  0.12237945855915806  0.8779555969473837  0.7432209574366161  1.0000
  H   H15       1.0  0.5421942335251753  0.10596725150024472  0.289863248900406  1.0000
  H   H16       1.0  0.45780576643041343  0.8940327485046152  0.7101367512312429  1.0000
  H   H17       1.0  0.3087224719030548  0.6065192952038779  0.02944956997775636  1.0000
  H   H18       1.0  0.691277528052534  0.3934807048009819  0.9705504301538924  1.0000
  H   H19       1.0  0.3976721079501231  0.6210244311865386  0.9027413693432413  1.0000
  H   H20       1.0  0.6023278920054655  0.3789755688183212  0.09725863078840737  1.0000
  H   H21       1.0  0.21837198556992932  0.7494356549009576  0.9545916786948939  1.0000
  H   H22       1.0  0.7816280143856593  0.25056434510390224  0.04540832143675489  1.0000
  C   C1        1.0  0.2416091450499353  0.6109811773247713  0.4788537125992847  1.0000
  C   C2        1.0  0.7583908549056534  0.38901882268008864  0.5211462875323641  1.0000
  C   C3        1.0  0.23530236991640066  0.4559096401477316  0.5117326409433168  1.0000
  C   C4        1.0  0.7646976300391879  0.5440903598571282  0.48826735918833203  1.0000
  C   C5        1.0  0.23389202216404456  0.3227596471186114  0.41854970298093713  1.0000
  C   C6        1.0  0.7661079778007512  0.6772403540424294  0.5814502971510315  1.0000
  C   C7        1.0  0.2269142600339762  0.16708676804865966  0.4295796343516509  1.0000
  C   C8        1.0  0.7730857399216124  0.8329132319562004  0.5704203657799979  1.0000
  C   C9        1.0  0.22031612966818204  0.145965675516482  0.5398552407162754  1.0000
  C   C10       1.0  0.7796838716957774  0.8540343244810077  0.46014475941793764  1.0000
  C   C11       1.0  0.22036084613411508  0.27783712391147647  0.6338862899051685  1.0000
  C   C12       1.0  0.7796391538214735  0.7221628760933834  0.3661137102264803  1.0000
  C   C13       1.0  0.2280923979337222  0.43395718061245964  0.6210453165388468  1.0000
  C   C14       1.0  0.7719076020218664  0.5660428193924003  0.3789546835928021  1.0000
  C   C15       1.0  0.5030981617034069  0.8056520010039666  0.05274018027192419  1.0000
  C   C16       1.0  0.4969018382521817  0.19434799900089333  0.9472598198597245  1.0000
  C   C17       1.0  0.6894434922240594  0.8101682808351985  0.03184695731528464  1.0000
  C   C18       1.0  0.31055650747115565  0.18983171887235495  0.968153041949643  1.0000
  C   C19       1.0  0.8275346373481423  0.9220133864643458  0.1037091895673379  1.0000
  C   C20       1.0  0.17246536260744638  0.07798661354051405  0.8962908105643109  1.0000
  C   C21       1.0  0.7768447962058301  0.03097989066030795  0.1983005029884197  1.0000
  C   C22       1.0  0.22315520374975845  0.969020109344552  0.8016994971432291  1.0000
  C   C23       1.0  0.5920697979284888  0.02540207094457424  0.21835976667983348  1.0000
  C   C24       1.0  0.40793020343547076  0.9745979290529154  0.7816402334543796  1.0000
  C   C25       1.0  0.34866653114278473  0.6890627192487341  0.9804234698045919  1.0000
  C   C26       1.0  0.6513334685524305  0.31093728045881935  0.019576529460335675  1.0000
  N   N1        1.0  0.24013281718103455  0.5794731913191881  0.36088381068584996  1.0000
  N   N2        1.0  0.7598671827745541  0.4205268086856719  0.6391161894457988  1.0000
  N   N3        1.0  0.4598974892950818  0.9158153274223982  0.1463479137622122  1.0000
  N   N4        1.0  0.5401025120688777  0.08418467257509141  0.8536520863720009  1.0000
  O   O1        1.0  0.2470044751220484  0.745202765955678  0.544053870332162  1.0000
  O   O2        1.0  0.7529955248335403  0.2547972340491819  0.4559461297994868  1.0000
  O   O3        1.0  0.41026078180346637  0.35180192954847844  0.24601622346479768  1.0000
  O   O4        1.0  0.5897392181613292  0.6481980716125623  0.7539837766671708  1.0000
  O   O5        1.0  0.05741516680825882  0.3416701060938422  0.20851324651885145  1.0000
  O   O6        1.0  0.9425848331473299  0.6583298939110178  0.7914867536127974  1.0000
  O   O7        1.0  0.2812951609009679  0.917147955756614  0.16779322231702987  1.0000
  O   O8        1.0  0.7187048404629917  0.08285204424087558  0.8322067778171832  1.0000
  S   S1        1.0  0.235076368308676  0.38621434796236653  0.2908814217820781  1.0000
  S   S2        1.0  0.7649236316469128  0.6137856520424932  0.7091185783495707  1.0000
  Br  Br1       1.0  0.25467750223597635  0.7370587841793974  0.27028015116637877  1.0000
  Br  Br2       1.0  0.7453224977196123  0.2629412158254625  0.7297198489652701  1.0000
