data_image0
_chemical_formula_structural       H26C28N4O8S2Cl4Br2
_chemical_formula_sum              "H26 C28 N4 O8 S2 Cl4 Br2"
_cell_length_a       7.064013846677516
_cell_length_b       8.61310853221717
_cell_length_c       13.855251319974911
_cell_angle_alpha    84.88464918244824
_cell_angle_beta     88.23164796058242
_cell_angle_gamma    90.48333964262885

_space_group_name_H-M_alt    "P 1"
_space_group_IT_number       1

loop_
  _space_group_symop_operation_xyz
  'x, y, z'

loop_
  _atom_site_type_symbol
  _atom_site_label
  _atom_site_symmetry_multiplicity
  _atom_site_fract_x
  _atom_site_fract_y
  _atom_site_fract_z
  _atom_site_occupancy
  H   H1        1.0  0.22876091311809074  0.8443117556503952  0.6340823301350961  1.0000
  H   H2        1.0  0.7712390860118471  0.15568824368177844  0.36591766997801073  1.0000
  H   H3        1.0  0.2047798605265536  0.9742034595290265  0.46700056262562173  1.0000
  H   H4        1.0  0.7952201400192142  0.02579653980929558  0.5329994374846994  1.0000
  H   H5        1.0  0.20636918293242199  0.8157219687438036  0.32465544642690836  1.0000
  H   H6        1.0  0.7936308176133458  0.18427803059451858  0.6753445536834127  1.0000
  H   H7        1.0  0.23562992128526775  0.5265143128375352  0.3478960182100254  1.0000
  H   H8        1.0  0.7643700792604999  0.47348568650078715  0.6521039819002956  1.0000
  H   H9        1.0  0.44799384967867545  0.881746267163182  0.9496302590443947  1.0000
  H   H10       1.0  0.5520061508670923  0.11825373217514022  0.050369741065926434  1.0000
  H   H11       1.0  0.029685021473374065  0.8076877026742978  0.856972649490517  1.0000
  H   H12       1.0  0.9703149776565638  0.19231229665787578  0.14302735062258967  1.0000
  H   H13       1.0  0.9128252837662076  0.8046010205839392  0.6882458038497331  1.0000
  H   H14       1.0  0.08717471540808741  0.19539898001633185  0.31175419554029005  1.0000
  H   H15       1.0  0.5691418974263601  0.8443612549312574  0.6581137108225519  1.0000
  H   H16       1.0  0.4308581017035777  0.1556387444009164  0.34188628929055465  1.0000
  H   H17       1.0  0.8347652648840019  0.9682368804173858  0.03901037266504053  1.0000
  H   H18       1.0  0.16523473425076587  0.03176312007555764  0.9609896274499741  1.0000
  H   H19       1.0  0.9369882391087065  0.7820523732142481  0.035557442904908816  1.0000
  H   H20       1.0  0.06301176144189113  0.21794762728484376  0.9644425572073202  1.0000
  H   H21       1.0  0.6957670652768428  0.7991411406496083  0.0733631016506417  1.0000
  H   H22       1.0  0.304232933853095  0.20085885868256537  0.9266368984624649  1.0000
  H   H23       1.0  0.8748846634946321  0.4773329869354537  0.8707435895250142  1.0000
  H   H24       1.0  0.12511533705113562  0.5226670124028687  0.1292564105853069  1.0000
  H   H25       1.0  0.6182071055863405  0.4982769128821037  0.8771114206788272  1.0000
  H   H26       1.0  0.3817928935484274  0.5017230876108396  0.12288857943618739  1.0000
  C   C1        1.0  0.2601770719591497  0.353793854427409  0.5324426709591952  1.0000
  C   C2        1.0  0.7398229271756183  0.6462061460655343  0.4675573291558193  1.0000
  C   C3        1.0  0.24553230763733172  0.5241695105718249  0.5034016147424596  1.0000
  C   C4        1.0  0.7544676929084361  0.4758304887664973  0.4965983853678615  1.0000
  C   C5        1.0  0.24262192400607047  0.6151386408301996  0.5821726135560148  1.0000
  C   C6        1.0  0.7573780765840545  0.38486135977621994  0.41782738583122286  1.0000
  C   C7        1.0  0.22800405340002444  0.7761817771402496  0.5715601079615178  1.0000
  C   C8        1.0  0.7719959457347433  0.22381822335269372  0.4284398921534968  1.0000
  C   C9        1.0  0.21530031116070153  0.8475262908066279  0.4772020517818256  1.0000
  C   C10       1.0  0.7846996893898962  0.15247370969246407  0.5227979483304035  1.0000
  C   C11       1.0  0.21740560884221408  0.7584266519072589  0.39755887879029156  1.0000
  C   C12       1.0  0.7825943917035536  0.24157334743106335  0.6024411213200295  1.0000
  C   C13       1.0  0.23315623004296965  0.5960128091492728  0.40972370237942934  1.0000
  C   C14       1.0  0.7668437690869683  0.4039871901829008  0.5902762977336772  1.0000
  C   C15       1.0  0.5607133594539154  0.8661071636755803  0.8964381283529844  1.0000
  C   C16       1.0  0.4392866396760224  0.1338928356565933  0.10356187176012231  1.0000
  C   C17       1.0  0.7497084536387486  0.8446488414098082  0.9192637128635724  1.0000
  C   C18       1.0  0.250291546911849  0.1553511590892838  0.0807362872486566  1.0000
  C   C19       1.0  0.8798681793112785  0.8242700226796265  0.8430808093100159  1.0000
  C   C20       1.0  0.12013182127884653  0.17572997792679315  0.15691919007722174  1.0000
  C   C21       1.0  0.8167166746311288  0.8240457269516869  0.7487254011827006  1.0000
  C   C22       1.0  0.18328332591946878  0.17595427354740492  0.25127459892952864  1.0000
  C   C23       1.0  0.6272310784764324  0.8457603809204274  0.7296208159179068  1.0000
  C   C24       1.0  0.3727689220741652  0.1542396195786645  0.2703791841943222  1.0000
  C   C25       1.0  0.8070502783995098  0.8477983537460194  0.02232552563609599  1.0000
  C   C26       1.0  0.19294972073525812  0.15220164674692396  0.9776744744789186  1.0000
  C   C27       1.0  0.7405924217693639  0.4327655443308491  0.90390212737838  1.0000
  C   C28       1.0  0.2594075774001012  0.5672344551086521  0.09609787200973509  1.0000
  N   N1        1.0  0.26504912812772463  0.3313539984917639  0.632636343986133  1.0000
  N   N2        1.0  0.734950872422873  0.668646002007328  0.36736365612609606  1.0000
  N   N3        1.0  0.5031322749312549  0.8676605377864117  0.8038226373067257  1.0000
  N   N4        1.0  0.49686772561934284  0.1323394627126801  0.19617736280550352  1.0000
  O   O1        1.0  0.26623798868477655  0.24865374076698887  0.4778986812684387  1.0000
  O   O2        1.0  0.7337620104499912  0.7513462597259544  0.522101318846576  1.0000
  O   O3        1.0  0.0849538343776024  0.49614426266902095  0.7502941466524158  1.0000
  O   O4        1.0  0.9150461647523356  0.5038557366631528  0.24970585346069088  1.0000
  O   O5        1.0  0.43389258979353007  0.51532170014389  0.7392309354678298  1.0000
  O   O6        1.0  0.5661074107570676  0.484678300355202  0.26076906464439936  1.0000
  O   O7        1.0  0.3196119889516012  0.8898678693791214  0.7869260790377205  1.0000
  O   O8        1.0  0.6803880115989965  0.11013213111997035  0.21307392107450865  1.0000
  S   S1        1.0  0.25756025827242324  0.49424582794985905  0.6914449059242224  1.0000
  S   S2        1.0  0.7424397422781744  0.5057541725492328  0.30855509418800664  1.0000
  Cl  Cl1       1.0  0.7124523968845581  0.2380223612453709  0.8725837851246102  1.0000
  Cl  Cl2       1.0  0.28754760366603954  0.7619776392537211  0.12741621498761882  1.0000
  Cl  Cl3       1.0  0.748628560615304  0.4412711997239728  0.031092545292337664  1.0000
  Cl  Cl4       1.0  0.25137143993529365  0.5587288007751191  0.9689074548198915  1.0000
  Br  Br1       1.0  0.28739412869272435  0.12817314492178813  0.7054817695057483  1.0000
  Br  Br2       1.0  0.7126058704420435  0.8718268555711551  0.29451823060926635  1.0000
