data_image0
_chemical_formula_structural       H116C64N28O24S8
_chemical_formula_sum              "H116 C64 N28 O24 S8"
_cell_length_a       10.363786735677028
_cell_length_b       11.624212479261482
_cell_length_c       18.542522260001018
_cell_angle_alpha    90.0
_cell_angle_beta     93.5607178212604
_cell_angle_gamma    90.0

_space_group_name_H-M_alt    "P 1"
_space_group_IT_number       1

loop_
  _space_group_symop_operation_xyz
  'x, y, z'

loop_
  _atom_site_type_symbol
  _atom_site_label
  _atom_site_symmetry_multiplicity
  _atom_site_fract_x
  _atom_site_fract_y
  _atom_site_fract_z
  _atom_site_occupancy
  H   H1        1.0  0.9452611454893679  0.36129604026877044  0.573068908353845  1.0000
  H   H2        1.0  0.05473885506988951  0.8612960403005367  0.9269310917177443  1.0000
  H   H3        1.0  0.05473885501161176  0.6387039597947624  0.4269310918605642  1.0000
  H   H4        1.0  0.9452611453706788  0.13870395976299596  0.07306890795632096  1.0000
  H   H5        1.0  0.8811393712677988  0.5014397930525718  0.5512842804222347  1.0000
  H   H6        1.0  0.11886062929145842  0.0014397930208054244  0.9487157196493549  1.0000
  H   H7        1.0  0.11886062923318069  0.4985602070109609  0.4487157197921746  1.0000
  H   H8        1.0  0.8811393711491099  0.9985602070427273  0.051284280024710485  1.0000
  H   H9        1.0  0.8894208296880264  0.4503236764932717  0.6434221415396333  1.0000
  H   H10       1.0  0.11057917087123094  0.950323676525038  0.856577858531956  1.0000
  H   H11       1.0  0.11057917081295318  0.549676323570261  0.3565778586747759  1.0000
  H   H12       1.0  0.8894208296297488  0.04967632353849461  0.14342214168245326  1.0000
  H   H13       1.0  0.4481369158202397  0.5008731507951499  0.6863036919981512  1.0000
  H   H14       1.0  0.5518630846786063  0.0008731507633835714  0.8136963075330942  1.0000
  H   H15       1.0  0.5518630846203286  0.49912684926838274  0.31369630767591405  1.0000
  H   H16       1.0  0.4481369157619619  0.9991268493001492  0.18630369214097114  1.0000
  H   H17       1.0  0.29051329188689395  0.5391966682630879  0.6012526110498762  1.0000
  H   H18       1.0  0.7094867076470769  0.03919666823132154  0.898747388481576  1.0000
  H   H19       1.0  0.7094867075887991  0.4608033318004448  0.3987473886243959  1.0000
  H   H20       1.0  0.2905132918286162  0.9608033318322112  0.10125261119269613  1.0000
  H   H21       1.0  0.37665077583709383  0.3727681653901853  0.6709414386292213  1.0000
  H   H22       1.0  0.6233492236968768  0.8727681654219516  0.829058560902231  1.0000
  H   H23       1.0  0.6233492236385991  0.6272318346733474  0.3290585610450509  1.0000
  H   H24       1.0  0.37665077577881606  0.12723183464158105  0.17094143877204115  1.0000
  H   H25       1.0  0.3409852271434376  0.44786600376482083  0.7484248536731273  1.0000
  H   H26       1.0  0.6590147724509446  0.9478660037965871  0.751575146398669  1.0000
  H   H27       1.0  0.6590147723322554  0.552133996298712  0.2515751460011448  1.0000
  H   H28       1.0  0.3409852270851599  0.05213399626694555  0.24842485381594723  1.0000
  H   H29       1.0  0.27601143669726264  0.7596242417069956  0.5787839958848611  1.0000
  H   H30       1.0  0.7239885628971194  0.25962424167522935  0.9212160041869352  1.0000
  H   H31       1.0  0.723988563803717  0.240375758356537  0.42121600432954837  1.0000
  H   H32       1.0  0.27601143657857347  0.7403757583883034  0.07878399548733687  1.0000
  H   H33       1.0  0.38689262168511984  0.586102180440601  0.3920972013672758  1.0000
  H   H34       1.0  0.613107377792707  0.0861021804088347  0.1079027989901602  1.0000
  H   H35       1.0  0.6131073778509846  0.4138978196229316  0.6079027988473402  1.0000
  H   H36       1.0  0.38689262174339756  0.913897819654698  0.8920972012244559  1.0000
  H   H37       1.0  0.3117390794491471  0.9333326287140686  0.3797476941172822  1.0000
  H   H38       1.0  0.6882609209935548  0.4333326286823022  0.12025230623994702  1.0000
  H   H39       1.0  0.6882609200869574  0.0666673713494641  0.620252306097334  1.0000
  H   H40       1.0  0.3117390795074248  0.5666673713812305  0.8797476939744622  1.0000
  H   H41       1.0  0.6118390392165934  0.7372018332672836  0.7243280569122458  1.0000
  H   H42       1.0  0.38816096037778874  0.2372018332355172  0.7756719431595505  1.0000
  H   H43       1.0  0.38816096025909963  0.2627981659359758  0.27567194276202633  1.0000
  H   H44       1.0  0.611839040123191  0.7627981659677422  0.22432805705485884  1.0000
  H   H45       1.0  0.6339497966120223  0.5687309012799479  0.5236621596912503  1.0000
  H   H46       1.0  0.36605020394723514  0.0687309012481815  0.9763378403803391  1.0000
  H   H47       1.0  0.3660502038889574  0.4312690987835849  0.47633784052315903  1.0000
  H   H48       1.0  0.6339497965537445  0.9312690988153512  0.023662159834070228  1.0000
  H   H49       1.0  0.7101189190209242  0.9156270894900406  0.5357691477918417  1.0000
  H   H50       1.0  0.2898810805130466  0.41562708945827426  0.9642308517396105  1.0000
  H   H51       1.0  0.2898810804547689  0.0843729105734921  0.46423085188243046  1.0000
  H   H52       1.0  0.7101189189626465  0.5843729106052585  0.035769147934661585  1.0000
  H   H53       1.0  0.054513820383378875  0.8852845462313674  0.7161461794256733  1.0000
  H   H54       1.0  0.9454861792110033  0.38528454619960106  0.783853820646123  1.0000
  H   H55       1.0  0.9454861791527256  0.11471545383216528  0.28385382078894283  1.0000
  H   H56       1.0  0.05451382026468972  0.6147154538639317  0.21614617902814914  1.0000
  H   H57       1.0  0.1868317089491985  0.8227041657283592  0.6753232212604504  1.0000
  H   H58       1.0  0.8131682906451837  0.3227041656965929  0.8246767788113458  1.0000
  H   H59       1.0  0.813168290586906  0.17729583433517349  0.3246767789541658  1.0000
  H   H60       1.0  0.1868317088909208  0.6772958343669399  0.17532322140327028  1.0000
  H   H61       1.0  0.9125022679442976  0.8606585536739613  0.6049118802932124  1.0000
  H   H62       1.0  0.0874977326149598  0.360658553642195  0.895088119778377  1.0000
  H   H63       1.0  0.08749773255668208  0.13934144638957136  0.39508811992119697  1.0000
  H   H64       1.0  0.91250226788602  0.6393414464213376  0.10491188043603228  1.0000
  H   H65       1.0  0.9880833548145566  0.7274884475044681  0.6271677678897383  1.0000
  H   H66       1.0  0.0119166447798258  0.22748844747270178  0.872832232182058  1.0000
  H   H67       1.0  0.011916644661136613  0.2725115525590646  0.3728322317845338  1.0000
  H   H68       1.0  0.9880833547562787  0.7725115525908308  0.1271677680325582  1.0000
  H   H69       1.0  0.04422000819171863  0.8112136660288487  0.555863618024359  1.0000
  H   H70       1.0  0.9557799914026636  0.3112136659970824  0.9441363820474372  1.0000
  H   H71       1.0  0.9557799923092611  0.18878633403468398  0.44413638219005036  1.0000
  H   H72       1.0  0.04422000807302946  0.6887863340664503  0.05586361762683486  1.0000
  H   H73       1.0  0.9625129528227596  0.041778319250996176  0.5904376814935591  1.0000
  H   H74       1.0  0.037487047736497914  0.5417783192827625  0.9095623185780304  1.0000
  H   H75       1.0  0.03748704767822017  0.9582216808125364  0.40956231872085025  1.0000
  H   H76       1.0  0.9625129527644818  0.45822168078077014  0.09043768163637898  1.0000
  H   H77       1.0  0.07922662772623504  0.1523366716807041  0.6055644581624271  1.0000
  H   H78       1.0  0.9207733718077358  0.6523366717124705  0.8944355413690249  1.0000
  H   H79       1.0  0.920773371749458  0.8476633283828285  0.39443554151184496  1.0000
  H   H80       1.0  0.07922662766795731  0.34766332835106223  0.10556445830524704  1.0000
  H   H81       1.0  0.9246235760305044  0.03560725861975095  0.7227196335030398  1.0000
  H   H82       1.0  0.0753764235638778  0.5356072586515173  0.7772803665687564  1.0000
  H   H83       1.0  0.0753764244704753  0.9643927414437817  0.2772803667113696  1.0000
  H   H84       1.0  0.9246235759118152  0.46439274141201536  0.22271963310551565  1.0000
  H   H85       1.0  0.904127093237413  0.17749623242701465  0.6900403749951832  1.0000
  H   H86       1.0  0.09587290635696911  0.677496232458781  0.809959625076613  1.0000
  H   H87       1.0  0.09587290629869136  0.8225037667762448  0.3099596252194328  1.0000
  H   H88       1.0  0.9041270931791354  0.32250376760475175  0.1900403751380032  1.0000
  H   H89       1.0  0.04842389732838671  0.1416885447455826  0.7403447895651399  1.0000
  H   H90       1.0  0.9515761032308707  0.6416885447773489  0.7596552105064495  1.0000
  H   H91       1.0  0.9515761031121814  0.8583114553179502  0.2596552101089253  1.0000
  H   H92       1.0  0.04842389727010897  0.35831145528618374  0.24034478970795994  1.0000
  H   H93       1.0  0.25214209999270565  0.1279538930188668  0.6842679237377368  1.0000
  H   H94       1.0  0.7478578996016765  0.6279538930506331  0.8157320763340594  1.0000
  H   H95       1.0  0.7478578995433988  0.8720461070446659  0.31573207647687923  1.0000
  H   H96       1.0  0.25214209987401653  0.37204610701289953  0.18426792334021277  1.0000
  H   H97       1.0  0.23838529139781856  0.009219785012636742  0.74376338548227  1.0000
  H   H98       1.0  0.7616147091010275  0.509219785044403  0.7562366140489756  1.0000
  H   H99       1.0  0.7616147090427497  0.990780215050896  0.25623661419179544  1.0000
  H   H100      1.0  0.23838529133954076  0.4907802150191296  0.24376338562508978  1.0000
  H   H101      1.0  0.39110466311105735  0.8950593262607858  0.6726036991994058  1.0000
  H   H102      1.0  0.6088953364833248  0.39505932622901935  0.8273963008723905  1.0000
  H   H103      1.0  0.6088953363646358  0.10494067380274698  0.32739630047486634  1.0000
  H   H104      1.0  0.3911046630527796  0.6049406738345133  0.1726036993422257  1.0000
  H   H105      1.0  0.45946149351074816  0.030204966626892465  0.6982502633730753  1.0000
  H   H106      1.0  0.5405385060836341  0.5302049666586588  0.801749736698721  1.0000
  H   H107      1.0  0.5405385060253564  0.9697950334366403  0.3017497368415409  1.0000
  H   H108      1.0  0.4594614934524703  0.4697950334048739  0.19825026351589514  1.0000
  H   H109      1.0  0.39640852901162277  0.010442545696455818  0.6085339335166832  1.0000
  H   H110      1.0  0.6035914705827594  0.5104425457282221  0.8914660665551131  1.0000
  H   H111      1.0  0.6035914714893569  0.989557454367077  0.39146606669772616  1.0000
  H   H112      1.0  0.396408528953345  0.4895574543353105  0.10853393365950306  1.0000
  H   H113      1.0  0.17865870534229777  0.9783369308062165  0.5879803301597621  1.0000
  H   H114      1.0  0.8213412942520845  0.4783369307744502  0.9120196699120341  1.0000
  H   H115      1.0  0.8213412941938066  0.021663069257316134  0.412019670054854  1.0000
  H   H116      1.0  0.1786587052236086  0.5216630692890825  0.08798032976223805  1.0000
  C   C1        1.0  0.14379793054096507  0.45513285647855983  0.6507891215280356  1.0000
  C   C2        1.0  0.8562020700182924  0.9551328565103261  0.8492108785435538  1.0000
  C   C3        1.0  0.8562020699600146  0.5448671435849729  0.34921087868637374  1.0000
  C   C4        1.0  0.14379793048268733  0.044867143553206555  0.15078912167085548  1.0000
  C   C5        1.0  0.9360946044326783  0.45024135091623096  0.5919253286160142  1.0000
  C   C6        1.0  0.063905395161704  0.9502413509479973  0.9080746714557819  1.0000
  C   C7        1.0  0.06390539510342627  0.5497586491473018  0.40807467159860183  1.0000
  C   C8        1.0  0.9360946043744005  0.0497586491155354  0.0919253287588342  1.0000
  C   C9        1.0  0.3361199557621454  0.6581537909470542  0.4898454119604374  1.0000
  C   C10       1.0  0.66388004365527  0.15815379091528783  0.010154587856654665  1.0000
  C   C11       1.0  0.6638800437135477  0.34184620911647856  0.5101545877138348  1.0000
  C   C12       1.0  0.33611995588083454  0.8418462091482449  0.9898454123579615  1.0000
  C   C13       1.0  0.2967826983207304  0.760481530750686  0.5221840978695321  1.0000
  C   C14       1.0  0.7032173012736518  0.2604815307189197  0.9778159022022641  1.0000
  C   C15       1.0  0.7032173012153741  0.2395184693128466  0.477815902345084  1.0000
  C   C16       1.0  0.29678269820204123  0.7395184684843397  0.022184097472008075  1.0000
  C   C17       1.0  0.28190295123609677  0.8617803905315777  0.4814366024068958  1.0000
  C   C18       1.0  0.7180970491461938  0.3617803904998114  0.01856339740998949  1.0000
  C   C19       1.0  0.7180970492648828  0.13821960953195495  0.5185633978075136  1.0000
  C   C20       1.0  0.2819029503294993  0.6382196095637213  0.9814366022642826  1.0000
  C   C21       1.0  0.35542974564034185  0.7602641551646403  0.3761108737146707  1.0000
  C   C22       1.0  0.6445702547419487  0.260264155132874  0.1238891261022145  1.0000
  C   C23       1.0  0.6445702548606379  0.23973584489889235  0.6238891264997387  1.0000
  C   C24       1.0  0.35542974569861957  0.7397358449306587  0.8761108735718507  1.0000
  C   C25       1.0  0.6150805180735738  0.6386427900594991  0.6266132288837197  1.0000
  C   C26       1.0  0.3849194815208084  0.13864279002773272  0.8733867711880765  1.0000
  C   C27       1.0  0.38491948146253063  0.36135721000403365  0.37338677133089637  1.0000
  C   C28       1.0  0.6150805180152961  0.8613572100357999  0.12661322902653968  1.0000
  C   C29       1.0  0.6288648052509375  0.7399373398709981  0.6672298074821886  1.0000
  C   C30       1.0  0.3711351943434447  0.23993733983923166  0.8327701925896075  1.0000
  C   C31       1.0  0.371135194285167  0.2600626601925347  0.3327701927324274  1.0000
  C   C32       1.0  0.6288648051322483  0.760062660224301  0.1672298070846646  1.0000
  C   C33       1.0  0.6649708472258079  0.8428896355327538  0.6347645427860338  1.0000
  C   C34       1.0  0.33502915333344946  0.3428896355009875  0.8652354572855556  1.0000
  C   C35       1.0  0.33502915327517174  0.15711036453077884  0.3652354574283755  1.0000
  C   C36       1.0  0.6649708471071188  0.6571103645625452  0.13476454238850968  1.0000
  C   C37       1.0  0.6718342104363013  0.743181405657586  0.5192766342292191  1.0000
  C   C38       1.0  0.3281657901229561  0.24318140562581955  0.9807233658423703  1.0000
  C   C39       1.0  0.32816579006467833  0.2568185944059468  0.48072336598519033  1.0000
  C   C40       1.0  0.6718342103780236  0.7568185944377133  0.019276634372038966  1.0000
  C   C41       1.0  0.09867585287140831  0.8737953644706014  0.6643767057800931  1.0000
  C   C42       1.0  0.9013241476274377  0.373795364438835  0.8356232937511523  1.0000
  C   C43       1.0  0.9013241475691599  0.1262046355929313  0.3356232938939722  1.0000
  C   C44       1.0  0.09867585281313059  0.6262046356246976  0.16437670592291304  1.0000
  C   C45       1.0  0.005441738089181345  0.8158975566663553  0.6095509917520537  1.0000
  C   C46       1.0  0.9945582624700762  0.31589755663458896  0.8904490083195357  1.0000
  C   C47       1.0  0.9945582623513869  0.18410244339717738  0.3904490079220115  1.0000
  C   C48       1.0  0.005441738030903599  0.6841024434289437  0.10955099189487368  1.0000
  C   C49       1.0  0.034622836507774486  0.0774267144209309  0.6301304602059493  1.0000
  C   C50       1.0  0.9653771630866076  0.5774267144526972  0.8698695398658468  1.0000
  C   C51       1.0  0.96537716302833  0.9225732856426019  0.3698695400086668  1.0000
  C   C52       1.0  0.03462283638908533  0.42257328561083546  0.13013045980842522  1.0000
  C   C53       1.0  0.975330010187237  0.108729129156481  0.7002265982418949  1.0000
  C   C54       1.0  0.024669989407145203  0.6087291291882474  0.7997734018299013  1.0000
  C   C55       1.0  0.024669989348867463  0.8912708709070517  0.29977340197272123  1.0000
  C   C56       1.0  0.9753300100685478  0.39127087087528534  0.20022659784437075  1.0000
  C   C57       1.0  0.254458206335738  0.03394919532863461  0.6879793922683374  1.0000
  C   C58       1.0  0.7455417932586441  0.533949195360401  0.8120206078034589  1.0000
  C   C59       1.0  0.7455417932003665  0.966050804734898  0.3120206079462787  1.0000
  C   C60       1.0  0.2544582062170489  0.46605080470313176  0.1879793918708133  1.0000
  C   C61       1.0  0.382218767492741  0.9883446057525878  0.6649845840605652  1.0000
  C   C62       1.0  0.6177812320412298  0.48834460572082133  0.8350154154708871  1.0000
  C   C63       1.0  0.617781231982952  0.011655394310944986  0.33501541561370696  1.0000
  C   C64       1.0  0.38221876839933855  0.5116553943427113  0.16498458420317824  1.0000
  N   N1        1.0  0.2605272864838966  0.5117988535235355  0.6517946989114346  1.0000
  N   N2        1.0  0.7394727140753607  0.011798853491769075  0.8482053011601548  1.0000
  N   N3        1.0  0.739472714017083  0.48820114653999724  0.3482053013029747  1.0000
  N   N4        1.0  0.2605272864256189  0.9882011465717637  0.15179469905425452  1.0000
  N   N5        1.0  0.3617467269205097  0.4543186550849699  0.6923762769488605  1.0000
  N   N6        1.0  0.6382532736387477  0.9543186551167362  0.8076237231227289  1.0000
  N   N7        1.0  0.6382532735804699  0.5456813449785628  0.3076237232655488  1.0000
  N   N8        1.0  0.3617467268018205  0.04568134494679647  0.19237627655133638  1.0000
  N   N9        1.0  0.3621693234541588  0.663124353908036  0.41713338487657053  1.0000
  N   N10       1.0  0.6378306769281317  0.16312435387626967  0.08286661494031466  1.0000
  N   N11       1.0  0.6378306770468208  0.33687564615549664  0.5828666153378388  1.0000
  N   N12       1.0  0.3621693235124366  0.836875646187263  0.9171333847337507  1.0000
  N   N13       1.0  0.31609471694683466  0.857011500587515  0.40977138740720187  1.0000
  N   N14       1.0  0.6839052834354559  0.35701150055574854  0.0902286124096833  1.0000
  N   N15       1.0  0.6839052834937336  0.1429884994760178  0.5902286122668634  1.0000
  N   N16       1.0  0.3160947170655238  0.6429884995077841  0.9097713878047259  1.0000
  N   N17       1.0  0.6383564246353538  0.6452727686612749  0.5533735130176202  1.0000
  N   N18       1.0  0.3616435749590283  0.1452727686295086  0.9466264870541761  1.0000
  N   N19       1.0  0.36164357586562584  0.35472723140225776  0.4466264871967891  1.0000
  N   N20       1.0  0.6383564245770761  0.8547272314340242  0.05337351316044012  1.0000
  N   N21       1.0  0.6806963699845514  0.8400107996494884  0.560611638724549  1.0000
  N   N22       1.0  0.319303630574706  0.340010799617722  0.9393883613470404  1.0000
  N   N23       1.0  0.31930363051642824  0.1599892004140443  0.43938836148986027  1.0000
  N   N24       1.0  0.6806963698658622  0.6599892004458107  0.06061163832702489  1.0000
  N   N25       1.0  0.14233385880128357  0.9900998248727131  0.6396448298989615  1.0000
  N   N26       1.0  0.8576661417579738  0.4900998248409468  0.8603551701726279  1.0000
  N   N27       1.0  0.8576661416996962  0.00990017519081959  0.3603551703154478  1.0000
  N   N28       1.0  0.14233385868259443  0.509900175222586  0.1396448295014374  1.0000
  O   O1        1.0  0.1165222619778455  0.37655974955802735  0.6915099873182434  1.0000
  O   O2        1.0  0.8834777385814119  0.8765597495897938  0.8084900127533459  1.0000
  O   O3        1.0  0.8834777385231342  0.6234402505055053  0.3084900128961659  1.0000
  O   O4        1.0  0.11652226185915633  0.123440250473739  0.1915099869207193  1.0000
  O   O5        1.0  0.061599526963684356  0.5039457787313409  0.5998954688127751  1.0000
  O   O6        1.0  0.9384004726306978  0.003945778699574669  0.9001045312590212  1.0000
  O   O7        1.0  0.93840047257242  0.4960542204719184  0.400104531401841  1.0000
  O   O8        1.0  0.06159952787028185  0.9960542205036848  0.09989546895538823  1.0000
  O   O9        1.0  0.3483512117989433  0.5605987555394387  0.5210305680195776  1.0000
  O   O10       1.0  0.6516487886999026  0.06059875550767231  0.9789694315116677  1.0000
  O   O11       1.0  0.651648788641625  0.43940124452409407  0.47896943165448763  1.0000
  O   O12       1.0  0.3483512117406655  0.9394012445558604  0.021030568162397543  1.0000
  O   O13       1.0  0.23869119873268851  0.957976912403057  0.5034183330700813  1.0000
  O   O14       1.0  0.7613088018265689  0.4579769123712907  0.9965816670015081  1.0000
  O   O15       1.0  0.7613088017682911  0.042023087660475626  0.49658166714432805  1.0000
  O   O16       1.0  0.23869119861399937  0.542023087692242  0.0034183326725572005  1.0000
  O   O17       1.0  0.5858535115902838  0.5401130064682784  0.6514338685562816  1.0000
  O   O18       1.0  0.41414648896897366  0.04011300643651209  0.8485661315153078  1.0000
  O   O19       1.0  0.4141464888502845  0.4598869935952542  0.3485661311177837  1.0000
  O   O20       1.0  0.585853511532006  0.9598869936270207  0.15143386869910153  1.0000
  O   O21       1.0  0.6862923862056736  0.939034671765867  0.6668222766111238  1.0000
  O   O22       1.0  0.31370761338870856  0.43903467173410055  0.8331777234606724  1.0000
  O   O23       1.0  0.3137076133304308  0.0609653282976658  0.33317772360349224  1.0000
  O   O24       1.0  0.6862923860869845  0.5609653283294321  0.16682227621359977  1.0000
  S   S1        1.0  0.39164345351249535  0.7601007058124033  0.2892507762069575  1.0000
  S   S2        1.0  0.6083565459653314  0.260100705780637  0.2107492241504785  1.0000
  S   S3        1.0  0.608356546023609  0.23989929425112932  0.7107492240076585  1.0000
  S   S4        1.0  0.39164345357077307  0.7398992942828957  0.7892507760641376  1.0000
  S   S5        1.0  0.7043316375654911  0.7464398044581563  0.4318866897421053  1.0000
  S   S6        1.0  0.29566836185192424  0.24643980528666318  0.0681133100749867  1.0000
  S   S7        1.0  0.2956683619706134  0.25356019474510316  0.5681133104725109  1.0000
  S   S8        1.0  0.7043316376237687  0.7535601947768694  0.9318866895992854  1.0000
