data_image0
_chemical_formula_structural       H56C52N8O28
_chemical_formula_sum              "H56 C52 N8 O28"
_cell_length_a       17.19017387894983
_cell_length_b       3.7150063893249383
_cell_length_c       19.909598948772427
_cell_angle_alpha    90.0
_cell_angle_beta     96.85714027855096
_cell_angle_gamma    90.0

_space_group_name_H-M_alt    "P 1"
_space_group_IT_number       1

loop_
  _space_group_symop_operation_xyz
  'x, y, z'

loop_
  _atom_site_type_symbol
  _atom_site_label
  _atom_site_symmetry_multiplicity
  _atom_site_fract_x
  _atom_site_fract_y
  _atom_site_fract_z
  _atom_site_occupancy
  H   H1        1.0  0.7239385904004606  0.2611070610234572  0.5340687151582308  1.0000
  H   H2        1.0  0.7760614099649661  0.761107062460206  0.9659312847370033  1.0000
  H   H3        1.0  0.27606140945300034  0.7388929391582549  0.4659312848999076  1.0000
  H   H4        1.0  0.22393859047441197  0.2388929377215062  0.03406871538036638  1.0000
  H   H5        1.0  0.7837297480041191  0.060980813021203395  0.4336545167262809  1.0000
  H   H6        1.0  0.7162702517417651  0.5609808117661668  0.06634548337174818  1.0000
  H   H7        1.0  0.21627025184934193  0.9390191871605087  0.5663454833318575  1.0000
  H   H8        1.0  0.28372974811169577  0.4390191884155454  0.9336545166863902  1.0000
  H   H9        1.0  0.984109071546729  0.6956929300112552  0.5497870447605655  1.0000
  H   H10       1.0  0.5158909282327806  0.1956929312662918  0.9502129550754373  1.0000
  H   H11       1.0  0.01589092830673194  0.304307070170457  0.450212955297573  1.0000
  H   H12       1.0  0.48410907162068034  0.8043070689154204  0.04978704498270101  1.0000
  H   H13       1.0  0.9330712804765988  0.8790809268549963  0.6567577840404515  1.0000
  H   H14       1.0  0.5669287198901916  0.37908092541824756  0.843242216357192  1.0000
  H   H15       1.0  0.06692871996277933  0.12091907332671582  0.343242216076918  1.0000
  H   H16       1.0  0.4330712805491865  0.6209190747634645  0.15675778376017746  1.0000
  H   H17       1.0  0.6890843944312476  0.3840925076468808  0.621075950963746  1.0000
  H   H18       1.0  0.8109156053496256  0.8840925090836296  0.8789240493746663  1.0000
  H   H19       1.0  0.3109156054222134  0.6159074925348313  0.3789240490943924  1.0000
  H   H20       1.0  0.1890843945038352  0.11590749109808253  0.12107595068347207  1.0000
  H   H21       1.0  0.7051594218886517  0.44798734257423956  0.709007833620892  1.0000
  H   H22       1.0  0.7948405778922215  0.9479873413192029  0.7909921667175204  1.0000
  H   H23       1.0  0.2948405779648092  0.5520126576074725  0.2909921664372464  1.0000
  H   H24       1.0  0.20515942196123937  0.05201265617072377  0.20900783334061807  1.0000
  H   H25       1.0  0.5879274902893885  0.24977764847629652  0.08001352676322421  1.0000
  H   H26       1.0  0.9120725094564954  0.7497776472212598  0.4199864733348049  1.0000
  H   H27       1.0  0.4120725095640723  0.7502223517054156  0.9199864732949145  1.0000
  H   H28       1.0  0.08792749039696542  0.25022235296045225  0.5800135267233335  1.0000
  H   H29       1.0  0.7327919847326668  0.5498364406235042  0.3838720443076027  1.0000
  H   H30       1.0  0.7672080150132172  0.0498364418785408  0.11612795579042641  1.0000
  H   H31       1.0  0.26720801512079406  0.45016355686642257  0.6161279557505358  1.0000
  H   H32       1.0  0.2327919848402437  0.9501635583031713  0.883872044267712  1.0000
  H   H33       1.0  0.5773478857970858  0.710653746810846  0.4645517487385442  1.0000
  H   H34       1.0  0.9226521145333518  0.21065374537409726  0.03544825091630638  1.0000
  H   H35       1.0  0.4226521146409286  0.2893462533708661  0.5354482508764158  1.0000
  H   H36       1.0  0.07734788532010911  0.7893462521158294  0.9645517491418321  1.0000
  H   H37       1.0  0.394641520892922  0.14127671529937005  0.2914707078460866  1.0000
  H   H38       1.0  0.10535847903312663  0.6412767167361189  0.20852929193177794  1.0000
  H   H39       1.0  0.6053584795464562  0.8587232848823421  0.7085292922712829  1.0000
  H   H40       1.0  0.8946415208203343  0.35872328344559334  0.7914707081263606  1.0000
  H   H41       1.0  0.47837982027226833  0.15202995925469448  0.21262562583287029  1.0000
  H   H42       1.0  0.02162017965378024  0.6520299579996578  0.2873743739449942  1.0000
  H   H43       1.0  0.5216201795811924  0.8479700409270176  0.7873743742252682  1.0000
  H   H44       1.0  0.9783798201996806  0.3479700421820543  0.7126256261131443  1.0000
  H   H45       1.0  0.7099101415892903  0.7336655215000234  0.27452754960618114  1.0000
  H   H46       1.0  0.790089858742511  0.23366552275506008  0.225472450551079  1.0000
  H   H47       1.0  0.2900898582641705  0.2663344786816887  0.7254724504519573  1.0000
  H   H48       1.0  0.2099101416968672  0.766334477426652  0.7745275495662906  1.0000
  H   H49       1.0  0.9074465097026692  0.23717513179300556  0.9138906969568737  1.0000
  H   H50       1.0  0.592553490078204  0.7371751305379689  0.5861093033815387  1.0000
  H   H51       1.0  0.09255349015079166  0.7628248683887066  0.08610930310126472  1.0000
  H   H52       1.0  0.4074465097752569  0.2628248696437432  0.4138906966765998  1.0000
  H   H53       1.0  0.9405968931670083  0.8847618403685353  0.9440348495801605  1.0000
  H   H54       1.0  0.5594031066125013  0.3847618389317866  0.5559651502558426  1.0000
  H   H55       1.0  0.05940310668645264  0.11523815981317677  0.05596515047797803  1.0000
  H   H56       1.0  0.44059689324095963  0.6152381612499255  0.44403484980229596  1.0000
  C   C1        1.0  0.7958210560953288  0.20335964217205027  0.6689967535011284  1.0000
  C   C2        1.0  0.7041789442700979  0.7033596409170136  0.8310032463941055  1.0000
  C   C3        1.0  0.20417894434404923  0.7966403580096618  0.3310032466162411  1.0000
  C   C4        1.0  0.2958210561679166  0.29664035657291304  0.16899675322085445  1.0000
  C   C5        1.0  0.8245653073568926  0.08544769422528031  0.6044899326106083  1.0000
  C   C6        1.0  0.675434692422617  0.5854476929702437  0.8955100672253945  1.0000
  C   C7        1.0  0.17543469249520466  0.9145523059564318  0.3955100669451206  1.0000
  C   C8        1.0  0.324565307430844  0.4145523072114684  0.10448993283274391  1.0000
  C   C9        1.0  0.7815707800172328  0.13543695952873674  0.5409826409097428  1.0000
  C   C10       1.0  0.7184292197622768  0.6354369582737001  0.9590173589262603  1.0000
  C   C11       1.0  0.21842921983622815  0.8645630406529755  0.45901735914839575  1.0000
  C   C12       1.0  0.2815707800911842  0.3645630419080121  0.0409826411318783  1.0000
  C   C13       1.0  0.8145434954328417  0.025395226848356336  0.4840220341569545  1.0000
  C   C14       1.0  0.6854565043116786  0.5253952282851051  0.015977965438665073  1.0000
  C   C15       1.0  0.18545650441925554  0.9746047733333558  0.5159779653987744  1.0000
  C   C16       1.0  0.3145434955417822  0.474604771896607  0.9840220346194734  1.0000
  C   C17       1.0  0.9267228512771721  0.821404506535586  0.548501238945872  1.0000
  C   C18       1.0  0.5732771485023374  0.32140450779062263  0.9514987608901311  1.0000
  C   C19       1.0  0.07327714857628868  0.17859549364612612  0.4514987611122665  1.0000
  C   C20       1.0  0.42672285134975996  0.6785954923910895  0.048501238665598016  1.0000
  C   C21       1.0  0.8983070498386573  0.9228457614101111  0.6081367900066601  1.0000
  C   C22       1.0  0.6016929499408522  0.4228457626651477  0.8918632098293428  1.0000
  C   C23       1.0  0.10169295001480361  0.07715423877160112  0.39186321005147834  1.0000
  C   C24       1.0  0.398307049911245  0.5771542375165645  0.10813678972638613  1.0000
  C   C25       1.0  0.6208018578128952  0.02448272236121977  0.16902980514728408  1.0000
  C   C26       1.0  0.8791981419316252  0.5244827237979686  0.33097019444833553  1.0000
  C   C27       1.0  0.37919814204056573  0.9755172778204924  0.8309701949108543  1.0000
  C   C28       1.0  0.12080185792047202  0.4755172763837436  0.6690298051073934  1.0000
  C   C29       1.0  0.596656976877375  0.9492422866709517  0.2362580189709304  1.0000
  C   C30       1.0  0.903343022868509  0.44924228792598825  0.2637419811270987  1.0000
  C   C31       1.0  0.4033430229760859  0.0507577135107605  0.763741981087208  1.0000
  C   C32       1.0  0.09665697698495183  0.5507577122557239  0.7362580189310398  1.0000
  C   C33       1.0  0.5210731128820003  0.03324600473229418  0.25088672390573336  1.0000
  C   C34       1.0  0.9789268868638838  0.5332460034772576  0.24911327619229576  1.0000
  C   C35       1.0  0.47892688697146063  0.966753995449418  0.7491132761524052  1.0000
  C   C36       1.0  0.021073112989577078  0.4667539940126692  0.7508867238658428  1.0000
  C   C37       1.0  0.5012862452288592  0.9769372780700636  0.3157486119790511  1.0000
  C   C38       1.0  0.9987137551015783  0.47693727932510016  0.18425138767579957  1.0000
  C   C39       1.0  0.49871375462460166  0.02306272211164858  0.6842513880790874  1.0000
  C   C40       1.0  0.0012862453364360779  0.5230627208566119  0.8157486119391606  1.0000
  C   C41       1.0  0.5566762416313756  0.8396348170391182  0.3669794839058245  1.0000
  C   C42       1.0  0.9433237587004257  0.3396348156023695  0.13302051625143557  1.0000
  C   C43       1.0  0.4433237588080025  0.16036518314259382  0.633020516211545  1.0000
  C   C44       1.0  0.05667624173895243  0.6603651845793427  0.8669794838659339  1.0000
  C   C45       1.0  0.6316877215600969  0.7450118869117016  0.35119281251597384  1.0000
  C   C46       1.0  0.8683122787703407  0.24501188547495287  0.14880718713887678  1.0000
  C   C47       1.0  0.3683122782920003  0.2549881132700105  0.6488071870397552  1.0000
  C   C48       1.0  0.13168772166903744  0.7549881147067592  0.8511928129784927  1.0000
  C   C49       1.0  0.6515071493636235  0.8020464079313282  0.2861961530617786  1.0000
  C   C50       1.0  0.8484928509681778  0.3020464064945794  0.21380384709548153  1.0000
  C   C51       1.0  0.34849285107575456  0.19795359225038395  0.713803847055591  1.0000
  C   C52       1.0  0.15150714888528316  0.6979535936871327  0.7861961529626569  1.0000
  N   N1        1.0  0.8857322886210199  0.8730171822367554  0.4875728111599126  1.0000
  N   N2        1.0  0.6142677111248641  0.37301718080000656  0.012427188938116555  1.0000
  N   N3        1.0  0.11426771123244095  0.1269828179449568  0.5124271888982259  1.0000
  N   N4        1.0  0.3857322887285968  0.6269828193817056  0.9875728111200219  1.0000
  N   N5        1.0  0.7255139748074202  0.35496686729511234  0.6654849162552325  1.0000
  N   N6        1.0  0.774486024973453  0.8549668660400758  0.8345150840831799  1.0000
  N   N7        1.0  0.27448602504604075  0.6450331328865997  0.33451508380290584  1.0000
  N   N8        1.0  0.22551397488000788  0.14503313414163638  0.1654849159749586  1.0000
  O   O1        1.0  0.8388326129829048  0.15440085692671718  0.7243193029196845  1.0000
  O   O2        1.0  0.6611673873825219  0.6544008556716805  0.7756806969755495  1.0000
  O   O3        1.0  0.16116738745510967  0.845599143254995  0.2756806966952755  1.0000
  O   O4        1.0  0.33883261305685614  0.3455991445100316  0.22431930314182  1.0000
  O   O5        1.0  0.5662144192607496  0.18207595872342835  0.12594760316563294  1.0000
  O   O6        1.0  0.933785581069688  0.682075960160177  0.3740523964892177  1.0000
  O   O7        1.0  0.43378558059271133  0.8179240414582838  0.8740523968925055  1.0000
  O   O8        1.0  0.06621441936832642  0.317924040021535  0.6259476031257423  1.0000
  O   O9        1.0  0.6873857969100904  0.9480046441158239  0.1543416358694594  1.0000
  O   O10       1.0  0.8126142034217109  0.4480046426790751  0.3456583642878007  1.0000
  O   O11       1.0  0.31261420294337045  0.05199535606588824  0.845658364188679  1.0000
  O   O12       1.0  0.18738579701766728  0.5519953575026371  0.6543416358295688  1.0000
  O   O13       1.0  0.6823529755663682  0.6019115785171846  0.40205448369849967  1.0000
  O   O14       1.0  0.817647024179516  0.10191157977222123  0.0979455163995294  1.0000
  O   O15       1.0  0.31764702428709274  0.39808842166452757  0.5979455163596388  1.0000
  O   O16       1.0  0.18235297567394498  0.8980884204094909  0.9020544836586091  1.0000
  O   O17       1.0  0.5350882460026125  0.8049787958893417  0.4305540360779856  1.0000
  O   O18       1.0  0.9649117537432716  0.30497879714437837  0.06944596402004351  1.0000
  O   O19       1.0  0.46491175385084843  0.19502120429237038  0.5694459639801528  1.0000
  O   O20       1.0  0.03508824611018931  0.6950212030373337  0.930554036038095  1.0000
  O   O21       1.0  0.42770251914797985  0.05391482786558433  0.3325679362934363  1.0000
  O   O22       1.0  0.07229748136534966  0.5539148266105477  0.16743206404606875  1.0000
  O   O23       1.0  0.5722974812913983  0.9460851723161279  0.6674320638239333  1.0000
  O   O24       1.0  0.9277025190740283  0.446085170879379  0.8325679360713006  1.0000
  O   O25       1.0  0.8959774873207454  0.05115621080655358  0.9468790405377293  1.0000
  O   O26       1.0  0.6040225124601277  0.551156209551517  0.5531209598006831  1.0000
  O   O27       1.0  0.1040225125327154  0.9488437893751586  0.05312095952040906  1.0000
  O   O28       1.0  0.3959774873933332  0.4488437879384098  0.44687904025745545  1.0000
