data_image0
_chemical_formula_structural       H16C8N12O16
_chemical_formula_sum              "H16 C8 N12 O16"
_cell_length_a       8.007279383620912
_cell_length_b       6.094512142384501
_cell_length_c       11.188631927148176
_cell_angle_alpha    90.0
_cell_angle_beta     90.0
_cell_angle_gamma    90.0

_space_group_name_H-M_alt    "P 1"
_space_group_IT_number       1

loop_
  _space_group_symop_operation_xyz
  'x, y, z'

loop_
  _atom_site_type_symbol
  _atom_site_label
  _atom_site_symmetry_multiplicity
  _atom_site_fract_x
  _atom_site_fract_y
  _atom_site_fract_z
  _atom_site_occupancy
  H   H1        1.0  0.4156795498866259  0.25000000072259676  0.47544076475450503  1.0000
  H   H2        1.0  0.08432045113613647  0.7500000005269699  0.9754407644350658  1.0000
  H   H3        1.0  0.5843204509100351  0.7500000005269699  0.5245592355003809  1.0000
  H   H4        1.0  0.9156795496605247  0.25000000072259676  0.02455923581982008  1.0000
  H   H5        1.0  0.9229674232570634  0.25000000072259676  0.559751803507251  1.0000
  H   H6        1.0  0.5770325760646329  0.7500000005269699  0.05975180293292584  1.0000
  H   H7        1.0  0.07703257629073407  0.7500000005269699  0.44024819674763493  1.0000
  H   H8        1.0  0.4229674234831647  0.25000000072259676  0.9402481964281958  1.0000
  H   H9        1.0  0.00047341672725372046  0.25000000072259676  0.37190803103490927  1.0000
  H   H10       1.0  0.499526583046645  0.7500000005269699  0.8719080316092344  1.0000
  H   H11       1.0  0.9995265840694074  0.7500000005269699  0.6280919683262124  1.0000
  H   H12       1.0  0.5004734165011525  0.25000000072259676  0.12809196864565156  1.0000
  H   H13       1.0  0.20836722313110057  0.25000000072259676  0.3230155503847363  1.0000
  H   H14       1.0  0.29163277664279813  0.7500000005269699  0.823015550065297  1.0000
  H   H15       1.0  0.7916327776655606  0.7500000005269699  0.6769844498701497  1.0000
  H   H16       1.0  0.7083672229049993  0.25000000072259676  0.1769844501895889  1.0000
  C   C1        1.0  0.17391459861492561  0.25000000072259676  0.506264341063526  1.0000
  C   C2        1.0  0.32608540240783673  0.7500000005269699  0.006264341382965201  1.0000
  C   C3        1.0  0.8260854021817355  0.7500000005269699  0.4937356591913599  1.0000
  C   C4        1.0  0.6739145983888243  0.25000000072259676  0.9937356588719207  1.0000
  C   C5        1.0  0.06992227361833572  0.25000000072259676  0.7112680676080129  1.0000
  C   C6        1.0  0.4300777274044266  0.7500000005269699  0.21126806703368778  1.0000
  C   C7        1.0  0.9300777271783255  0.7500000005269699  0.288731932646873  1.0000
  C   C8        1.0  0.5699222733922344  0.25000000072259676  0.7887319323274338  1.0000
  N   N1        1.0  0.045660527438055654  0.25000000072259676  0.5958935054269305  1.0000
  N   N2        1.0  0.4543394723358431  0.7500000005269699  0.09589350574636978  1.0000
  N   N3        1.0  0.9543394721097418  0.7500000005269699  0.404106493934191  1.0000
  N   N4        1.0  0.545660528460818  0.25000000072259676  0.9041064945085161  1.0000
  N   N5        1.0  0.12618538976756596  0.25000000072259676  0.39463198706952385  1.0000
  N   N6        1.0  0.3738146100063328  0.7500000005269699  0.8946319867500847  1.0000
  N   N7        1.0  0.8738146097802315  0.7500000005269699  0.6053680131853622  1.0000
  N   N8        1.0  0.6261853895414647  0.25000000072259676  0.1053680135048013  1.0000
  N   N9        1.0  0.6791773434463028  0.25000000072259676  0.40587773908096486  1.0000
  N   N10       1.0  0.8208226558753935  0.7500000005269699  0.9058777387615257  1.0000
  N   N11       1.0  0.32082265610149463  0.7500000005269699  0.594122261173921  1.0000
  N   N12       1.0  0.1791773436724041  0.25000000072259676  0.09412226149336027  1.0000
  O   O1        1.0  0.3245924508787002  0.25000000072259676  0.5447006041205424  1.0000
  O   O2        1.0  0.1754075488951985  0.7500000005269699  0.04470060443998164  1.0000
  O   O3        1.0  0.6754075486690972  0.7500000005269699  0.45529939613434345  1.0000
  O   O4        1.0  0.824592450652599  0.25000000072259676  0.9552993958149042  1.0000
  O   O5        1.0  0.5265530872601323  0.25000000072259676  0.3739299314913099  1.0000
  O   O6        1.0  0.9734469133104275  0.7500000005269699  0.8739299320656351  1.0000
  O   O7        1.0  0.47344691353652885  0.7500000005269699  0.6260700678698117  1.0000
  O   O8        1.0  0.02655308748623351  0.25000000072259676  0.1260700681892509  1.0000
  O   O9        1.0  0.7167093871782526  0.25000000072259676  0.5152525874063149  1.0000
  O   O10       1.0  0.7832906133923072  0.7500000005269699  0.015252587725754036  1.0000
  O   O11       1.0  0.2832906136184085  0.7500000005269699  0.4847474119548068  1.0000
  O   O12       1.0  0.21670938615549024  0.25000000072259676  0.9847474125291319  1.0000
  O   O13       1.0  0.7907148429154586  0.25000000072259676  0.3255411880305179  1.0000
  O   O14       1.0  0.7092851576551013  0.7500000005269699  0.8255411877110788  1.0000
  O   O15       1.0  0.20928515788120247  0.7500000005269699  0.674458812224368  1.0000
  O   O16       1.0  0.29071484314155993  0.25000000072259676  0.1744588116500429  1.0000
