data_image0
_chemical_formula_structural       H56C100N4O4F16I8
_chemical_formula_sum              "H56 C100 N4 O4 F16 I8"
_cell_length_a       11.415613130488104
_cell_length_b       12.771121049110649
_cell_length_c       16.645501518110272
_cell_angle_alpha    69.5824875384417
_cell_angle_beta     76.70551086035081
_cell_angle_gamma    84.91892648793247

_space_group_name_H-M_alt    "P 1"
_space_group_IT_number       1

loop_
  _space_group_symop_operation_xyz
  'x, y, z'

loop_
  _atom_site_type_symbol
  _atom_site_label
  _atom_site_symmetry_multiplicity
  _atom_site_fract_x
  _atom_site_fract_y
  _atom_site_fract_z
  _atom_site_occupancy
  H   H1        1.0  0.6594176259574255  0.9991001651129126  0.5479360293960035  1.0000
  H   H2        1.0  0.34058237427850435  0.0008998355275350178  0.4520639702016726  1.0000
  H   H3        1.0  0.8647103647782888  0.2048857296574399  0.31539617904619277  1.0000
  H   H4        1.0  0.13528963554137963  0.7951142701990433  0.6846038205465947  1.0000
  H   H5        1.0  0.02610664422496682  0.06201940822757198  0.31548853543123334  1.0000
  H   H6        1.0  0.973893355137951  0.9379805924126854  0.6845114641578632  1.0000
  H   H7        1.0  0.16702223577640524  0.9576703261856647  0.34190151794452256  1.0000
  H   H8        1.0  0.8329777643404991  0.04232967338180221  0.6580984823043176  1.0000
  H   H9        1.0  0.27997012433375545  0.6193573813729238  0.4564200892320243  1.0000
  H   H10       1.0  0.7200298759859132  0.3806426184835594  0.543579910360763  1.0000
  H   H11       1.0  0.8126653820228018  0.8473220530680672  0.5591250016480704  1.0000
  H   H12       1.0  0.18733461801036355  0.152677947283364  0.4408749986056584  1.0000
  H   H13       1.0  0.32218808240348723  0.8114341597023244  0.3491068662560164  1.0000
  H   H14       1.0  0.6778119178324424  0.1885658409381232  0.6508931333416595  1.0000
  H   H15       1.0  0.9155365055472908  0.7162306385815397  0.5404924378273533  1.0000
  H   H16       1.0  0.08446349456961327  0.2837693609859274  0.4595075624214867  1.0000
  H   H17       1.0  0.0738188944305251  0.5725160669570715  0.5495213284095705  1.0000
  H   H18       1.0  0.9261811058891435  0.4274839328994118  0.45047867118321694  1.0000
  H   H19       1.0  0.46742102248249784  0.6488200504920968  0.8273971490522195  1.0000
  H   H20       1.0  0.5325789776344063  0.35117994907537003  0.17260285119662067  1.0000
  H   H21       1.0  0.3376556655367014  0.8078265390429339  0.8404878508144936  1.0000
  H   H22       1.0  0.6623443346992283  0.19217346159751367  0.15951214878318248  1.0000
  H   H23       1.0  0.15477440497568049  0.7807427747055499  0.9604948663349008  1.0000
  H   H24       1.0  0.8452255953439881  0.21925722515093354  0.03950513325788654  1.0000
  H   H25       1.0  0.09709600731301787  0.5879127624717229  0.06223931973216506  1.0000
  H   H26       1.0  0.9029039928038862  0.4120872370957442  0.937760680516675  1.0000
  H   H27       1.0  0.2242316100057094  0.42759090560985796  0.04910465843994468  1.0000
  H   H28       1.0  0.7757683900274559  0.5724090947415732  0.9508953418137841  1.0000
  H   H29       1.0  0.4871347595013081  0.15132750221832048  0.04344401561545548  1.0000
  H   H30       1.0  0.5128652405318572  0.848672498133111  0.9565559846382732  1.0000
  H   H31       1.0  0.341420335270114  0.30431516242618417  0.05135517743324957  1.0000
  H   H32       1.0  0.6585796648467901  0.6956848371412828  0.9486448228155905  1.0000
  H   H33       1.0  0.5676061757539682  0.5188428744301009  0.8138297919265932  1.0000
  H   H34       1.0  0.4323938234899241  0.48115712513717607  0.18617020831366737  1.0000
  H   H35       1.0  0.7035528644444538  0.35711749845714985  0.8160802830044757  1.0000
  H   H36       1.0  0.2964471356724504  0.6428825011103172  0.18391971724436434  1.0000
  H   H37       1.0  0.4884509806115538  0.1330641403238124  0.3117286176883637  1.0000
  H   H38       1.0  0.5115490194216115  0.8669358600276188  0.688271382565365  1.0000
  H   H39       1.0  0.4913560461967496  0.9904144740391864  0.24185071889898166  1.0000
  H   H40       1.0  0.5086439538364156  0.009585526312244968  0.758149281354747  1.0000
  H   H41       1.0  0.1355358146526867  0.079407973689988  0.10651729666330423  1.0000
  H   H42       1.0  0.8644641854642177  0.9205920258774791  0.8934827035855358  1.0000
  H   H43       1.0  0.4270870660876826  0.3168932476360588  0.371761222469239  1.0000
  H   H44       1.0  0.5729129331562095  0.6831067519312181  0.6282387777710217  1.0000
  H   H45       1.0  0.9896355463911272  0.3677708955188614  0.17611720193147692  1.0000
  H   H46       1.0  0.010364453928541356  0.6322291043376219  0.8238827976613105  1.0000
  H   H47       1.0  0.3374055824327683  0.9831822188353314  0.16197104141088053  1.0000
  H   H48       1.0  0.6625944168111239  0.016817780731945283  0.8380289588293801  1.0000
  H   H49       1.0  0.9843180130854491  0.2294828816990192  0.10382967791293356  1.0000
  H   H50       1.0  0.015681986947716123  0.7705171186524121  0.8961703223407952  1.0000
  H   H51       1.0  0.054676392521324  0.49323455663135746  0.2662359792023437  1.0000
  H   H52       1.0  0.9453236077983446  0.5067654432251257  0.7337640203904437  1.0000
  H   H53       1.0  0.33334475321649387  0.48288210006023696  0.40566264144327296  1.0000
  H   H54       1.0  0.6666552469004103  0.5171178995072301  0.594337358805567  1.0000
  H   H55       1.0  0.15044346635739567  0.5716323681605886  0.3532430058420298  1.0000
  H   H56       1.0  0.8495565337595085  0.42836763140687834  0.6467569944068102  1.0000
  C   C1        1.0  0.6924299941996642  0.7967553157058044  0.13719246175167463  1.0000
  C   C2        1.0  0.3075700061200043  0.20324468415067903  0.8628075378411127  1.0000
  C   C3        1.0  0.5986579086749698  0.7484239067192865  0.2078805867356673  1.0000
  C   C4        1.0  0.40134209156095996  0.251576093921161  0.7921194128620088  1.0000
  C   C5        1.0  0.7919394275917878  0.7289395212256048  0.12197528849591201  1.0000
  C   C6        1.0  0.20806057252511642  0.2710604783418622  0.8780247117529281  1.0000
  C   C7        1.0  0.7956135302003425  0.616971700400076  0.17428203793705133  1.0000
  C   C8        1.0  0.2043864698328227  0.3830282999513552  0.8257179623166774  1.0000
  C   C9        1.0  0.7018718294621922  0.5689145427553826  0.24516131999974303  1.0000
  C   C10       1.0  0.29812816978169987  0.43108545681189425  0.7548386802405176  1.0000
  C   C11       1.0  0.6040324273559277  0.6375805932848467  0.26172707491136954  1.0000
  C   C12       1.0  0.39596757267723753  0.3624194070665845  0.7382729253423591  1.0000
  C   C13       1.0  0.25250355821864867  0.0782171771841185  0.7023455986723574  1.0000
  C   C14       1.0  0.74749644210102  0.9217828226723647  0.29765440092043016  1.0000
  C   C15       1.0  0.14113063181918972  0.08117570990557609  0.7575024311042221  1.0000
  C   C16       1.0  0.8588693682977145  0.918824289661891  0.24249756914461798  1.0000
  C   C17       1.0  0.30313636786412845  0.1741698161164484  0.6360321210711933  1.0000
  C   C18       1.0  0.6968636322527756  0.8258301834510184  0.36396787917764684  1.0000
  C   C19       1.0  0.12474476217606356  0.2760461484627699  0.680442999007858  1.0000
  C   C20       1.0  0.8752552379408406  0.7239538511046971  0.319557001240982  1.0000
  C   C21       1.0  0.07401650101656346  0.18010299660391427  0.7468603545879426  1.0000
  C   C22       1.0  0.9259834991003406  0.8198970029635527  0.2531396456608975  1.0000
  C   C23       1.0  0.2374893168355124  0.27364978684684244  0.6269209962651969  1.0000
  C   C24       1.0  0.7625106824083799  0.7263502127204343  0.37307900397506366  1.0000
  C   C25       1.0  0.9359833708266918  0.938379861784547  0.43792648838432113  1.0000
  C   C26       1.0  0.06401662920647354  0.06162013856688425  0.5620735118694076  1.0000
  C   C27       1.0  0.028690007471747783  0.84992335043437  0.4414147345534622  1.0000
  C   C28       1.0  0.9713099927641821  0.15007665020607763  0.5585852650442139  1.0000
  C   C29       1.0  0.7426207741486494  0.006786225611547769  0.4988896836741554  1.0000
  C   C30       1.0  0.2573792259682549  0.9932137739559194  0.5011103165746846  1.0000
  C   C31       1.0  0.8596553194309094  0.12387577522423586  0.3672238563257639  1.0000
  C   C32       1.0  0.1403446806859945  0.8761242243432312  0.6327761439230762  1.0000
  C   C33       1.0  0.948038123016676  0.04258898547237531  0.3696926944015723  1.0000
  C   C34       1.0  0.05196187614347721  0.9574110148788658  0.6303073058435769  1.0000
  C   C35       1.0  0.14448227374447364  0.873602715403059  0.3874016371947803  1.0000
  C   C36       1.0  0.8555177262886916  0.12639728494837213  0.6125983630589485  1.0000
  C   C37       1.0  0.20914472054696642  0.6829441812177688  0.4510409014942997  1.0000
  C   C38       1.0  0.7908552797727022  0.31705581863871446  0.5489590980984878  1.0000
  C   C39       1.0  0.82966288898388  0.9240993081357006  0.503030375355394  1.0000
  C   C40       1.0  0.1703371111330242  0.07590069143176625  0.4969696248934461  1.0000
  C   C41       1.0  0.233356933242004  0.7909908536106843  0.3917148537675007  1.0000
  C   C42       1.0  0.7666430669939258  0.20900914702976311  0.6082851458301753  1.0000
  C   C43       1.0  0.004661955833781015  0.7394496609655984  0.4990124022404239  1.0000
  C   C44       1.0  0.9953380442831231  0.2605503386018685  0.5009875980084162  1.0000
  C   C45       1.0  0.09402461953458247  0.6571534926568692  0.503973737175268  1.0000
  C   C46       1.0  0.9059753804985826  0.3428465076945621  0.49602626307846065  1.0000
  C   C47       1.0  0.4392610327922728  0.4292016748368501  0.9334183784038795  1.0000
  C   C48       1.0  0.5607389672408923  0.5707983255145811  0.06658162184984924  1.0000
  C   C49       1.0  0.3578247937363839  0.5244233117613664  0.9377130379805081  1.0000
  C   C50       1.0  0.6421752065832845  0.47557668809511694  0.062286961612279305  1.0000
  C   C51       1.0  0.3860636357539744  0.6333698370856156  0.8788896862963387  1.0000
  C   C52       1.0  0.6139363644819553  0.36663016355483197  0.1211103133013374  1.0000
  C   C53       1.0  0.31295144527914626  0.7242591215174758  0.886289687142355  1.0000
  C   C54       1.0  0.6870485548377581  0.27574087804999114  0.11371031310648494  1.0000
  C   C55       1.0  0.20953012844695604  0.7089721234590771  0.9529126035155131  1.0000
  C   C56       1.0  0.7904698716699482  0.29102787610839  0.04708739673332698  1.0000
  C   C57       1.0  0.17822689875752298  0.6010862833222603  0.010499895647619125  1.0000
  C   C58       1.0  0.8217731012756423  0.398913717029171  0.9895001046061096  1.0000
  C   C59       1.0  0.2510862368217125  0.510221824362173  0.002723116147405898  1.0000
  C   C60       1.0  0.7489137632951918  0.48977817520529393  0.9972768841014342  1.0000
  C   C61       1.0  0.49870283058177467  0.2347103988014529  0.9947238340471948  1.0000
  C   C62       1.0  0.5012971697378941  0.7652896010550304  0.0052761655455925704  1.0000
  C   C63       1.0  0.419275089587183  0.3220306090449058  0.9970601703101686  1.0000
  C   C64       1.0  0.5807249107324856  0.6779693908115773  0.0029398292826187836  1.0000
  C   C65       1.0  0.5438570701003976  0.4402235892256824  0.866962497014656  1.0000
  C   C66       1.0  0.45614292993276756  0.5597764111257489  0.13303750323907268  1.0000
  C   C67       1.0  0.6217449721776737  0.35155227675920653  0.8660361783569182  1.0000
  C   C68       1.0  0.37825502726898286  0.6484477230970865  0.13396382122728984  1.0000
  C   C69       1.0  0.23700616583273484  0.20758714212893004  0.22492589769163476  1.0000
  C   C70       1.0  0.7629938344031949  0.7924128585115174  0.7750741019060414  1.0000
  C   C71       1.0  0.1504061721037605  0.2948001357394273  0.22350328470325193  1.0000
  C   C72       1.0  0.8495938273428961  0.7051998641168656  0.7764967148809561  1.0000
  C   C73       1.0  0.1859212039667475  0.3594518210413636  0.2714108763000207  1.0000
  C   C74       1.0  0.8140787960664176  0.6405481793100676  0.7285891239537081  1.0000
  C   C75       1.0  0.32545377978575984  0.21263101579927204  0.2711279148316955  1.0000
  C   C76       1.0  0.6745462202474054  0.7873689845521592  0.7288720854220332  1.0000
  C   C77       1.0  0.29254324300502516  0.3090014095893115  0.30103434818281843  1.0000
  C   C78       1.0  0.7074567562388671  0.6909985899779653  0.6989656520574421  1.0000
  C   C79       1.0  0.23655596765731274  0.12791999697477405  0.18424001196252984  1.0000
  C   C80       1.0  0.7634440323758526  0.8720800033766573  0.8157599882911989  1.0000
  C   C81       1.0  0.4173749787383645  0.13378287140052325  0.2774226066974985  1.0000
  C   C82       1.0  0.5826250213785397  0.8662171281669439  0.7225773935513415  1.0000
  C   C83       1.0  0.41879356014149777  0.05201845382691879  0.23710649041272217  1.0000
  C   C84       1.0  0.5812064401781708  0.9479815460295643  0.7628935091800652  1.0000
  C   C85       1.0  0.14138257174484894  0.13805983536344932  0.13970530712541263  1.0000
  C   C86       1.0  0.8586174283720551  0.8619401642040175  0.8602946931234274  1.0000
  C   C87       1.0  0.34568631605979006  0.35367294060738913  0.3491003658660858  1.0000
  C   C88       1.0  0.6543136839733751  0.6463270597440423  0.650899634387643  1.0000
  C   C89       1.0  0.0586849167452296  0.302471238968382  0.1798307157806053  1.0000
  C   C90       1.0  0.9413150833716746  0.6975287605990851  0.8201692844682348  1.0000
  C   C91       1.0  0.3322812764469221  0.04771285947204846  0.19180080161306623  1.0000
  C   C92       1.0  0.6677187238727464  0.9522871403844348  0.8081991979797212  1.0000
  C   C93       1.0  0.056228944251594457  0.22297974767813472  0.13830554572333237  1.0000
  C   C94       1.0  0.9437710559843352  0.7770202529623127  0.8616944538743437  1.0000
  C   C95       1.0  0.1350583671824053  0.4540562515187716  0.2893652340176156  1.0000
  C   C96       1.0  0.8649416331372634  0.5459437483377116  0.7106347655751719  1.0000
  C   C97       1.0  0.2925594114055636  0.4480321961525573  0.3677869800210337  1.0000
  C   C98       1.0  0.7074405886276016  0.5519678041988739  0.632213020232695  1.0000
  C   C99       1.0  0.18912090549246352  0.4978045835032291  0.3382471873465221  1.0000
  C   C100      1.0  0.8108790946244406  0.5021954160642379  0.6617528129023179  1.0000
  N   N1        1.0  0.7568886234402716  0.10568794655922202  0.43092926372550955  1.0000
  N   N2        1.0  0.2431113758036204  0.8943120530080548  0.569070736514751  1.0000
  N   N3        1.0  0.5996827370333525  0.2494783174893255  0.9297564056491855  1.0000
  N   N4        1.0  0.40031726320257704  0.7505216831511221  0.07024359394849054  1.0000
  O   O1        1.0  0.6713783875126556  0.1829929795240972  0.42616572277115344  1.0000
  O   O2        1.0  0.32862161280701296  0.8170070203323861  0.573834276821634  1.0000
  O   O3        1.0  0.6758737775018907  0.165731302014937  0.9284035780933783  1.0000
  O   O4        1.0  0.32412622273403907  0.8342686986255105  0.07159642150429787  1.0000
  F   F1        1.0  0.8940312564473202  0.5547716104836818  0.1551735836072786  1.0000
  F   F2        1.0  0.10596874271283306  0.4452283898675592  0.8448264166378707  1.0000
  F   F3        1.0  0.887454152082312  0.771212826232054  0.055650661062441424  1.0000
  F   F4        1.0  0.11254584707784107  0.22878717411918692  0.9443493391827079  1.0000
  F   F5        1.0  0.5111649827687758  0.5974290633023837  0.3308727326832814  1.0000
  F   F6        1.0  0.4888350166778808  0.4025709365539094  0.6691272669009266  1.0000
  F   F7        1.0  0.4985383669120893  0.8091596919707547  0.22572345704685481  1.0000
  F   F8        1.0  0.501461633121076  0.19084030838067662  0.7742765432068739  1.0000
  F   F9        1.0  0.09860075487442876  0.9852239212835031  0.8218275125706215  1.0000
  F   F10       1.0  0.901399245361501  0.014776079356944402  0.17817248702705457  1.0000
  F   F11       1.0  0.3112766892960783  0.9783605553308322  0.7142004333485427  1.0000
  F   F12       1.0  0.6887233099478138  0.021639444236444594  0.285799566891718  1.0000
  F   F13       1.0  0.06510486522183005  0.3753307879859728  0.6668534286278749  1.0000
  F   F14       1.0  0.9348951350140996  0.6246692126544747  0.3331465709698011  1.0000
  F   F15       1.0  0.2831427897745864  0.37077921194797053  0.5658184333395543  1.0000
  F   F16       1.0  0.7168572105450821  0.6292207879085127  0.4341815662532332  1.0000
  I   I1        1.0  0.6801251502088296  0.9632225393810403  0.05439806441178913  1.0000
  I   I2        1.0  0.3198748498243357  0.036777460970390835  0.9456019358419396  1.0000
  I   I3        1.0  0.7028057893357766  0.3993960939835239  0.32294885625471725  1.0000
  I   I4        1.0  0.29719421011087993  0.6006039058727694  0.6770511433294906  1.0000
  I   I5        1.0  0.9023816476336761  0.18393452957491319  0.826009594297623  1.0000
  I   I6        1.0  0.09761835268599262  0.81606547028157  0.17399040529516446  1.0000
  I   I7        1.0  0.47013023846296004  0.17074700670429538  0.5511987644856915  1.0000
  I   I8        1.0  0.5298697616539441  0.8292529928631717  0.44880123576314856  1.0000
