data_image0
_chemical_formula_structural       H48C56N8O16F8
_chemical_formula_sum              "H48 C56 N8 O16 F8"
_cell_length_a       17.96338248009216
_cell_length_b       3.73895830864635
_cell_length_c       19.687216880882954
_cell_angle_alpha    90.0
_cell_angle_beta     99.78768193085651
_cell_angle_gamma    90.0

_space_group_name_H-M_alt    "P 1"
_space_group_IT_number       1

loop_
  _space_group_symop_operation_xyz
  'x, y, z'

loop_
  _atom_site_type_symbol
  _atom_site_label
  _atom_site_symmetry_multiplicity
  _atom_site_fract_x
  _atom_site_fract_y
  _atom_site_fract_z
  _atom_site_occupancy
  H   H1        1.0  0.13841888588326032  0.9669125519906804  0.5723671441918341  1.0000
  H   H2        1.0  0.8615811137471666  0.46691255314693153  0.9276328555982327  1.0000
  H   H3        1.0  0.8615811141079734  0.03308744837135903  0.42763285565606657  1.0000
  H   H4        1.0  0.1384188862440672  0.5330874472151079  0.07236714424966781  1.0000
  H   H5        1.0  0.2562710545242728  0.8240030553096517  0.6569643980848265  1.0000
  H   H6        1.0  0.7437289456726939  0.3240030537913612  0.8430356022995925  1.0000
  H   H7        1.0  0.7437289454685925  0.17599694505238767  0.3430356022712688  1.0000
  H   H8        1.0  0.25627105432017144  0.6759969465706782  0.15696439805650303  1.0000
  H   H9        1.0  0.38100138974184455  0.9711258431535078  0.623831074925314  1.0000
  H   H10       1.0  0.6189986104534907  0.47112584163521726  0.8761689249509103  1.0000
  H   H11       1.0  0.6189986102493893  0.028874157208531568  0.37616892492258674  1.0000
  H   H12       1.0  0.3810013895377432  0.5288741560522804  0.12383107489699033  1.0000
  H   H13       1.0  0.23090744782882092  0.48137616186782645  0.39270755849733313  1.0000
  H   H14       1.0  0.7690925525232197  0.9813761633861171  0.10729244140840129  1.0000
  H   H15       1.0  0.7690925521624129  0.5186238358196712  0.6072924413505675  1.0000
  H   H16       1.0  0.23090744746801403  0.018623836975922355  0.8927075584394993  1.0000
  H   H17       1.0  0.5112460075845128  0.7676310119219018  0.29725038136576576  1.0000
  H   H18       1.0  0.4887539927675279  0.26763101040361126  0.20274961853996862  1.0000
  H   H19       1.0  0.48875399240672107  0.2323689884401376  0.7027496184821349  1.0000
  H   H20       1.0  0.511246007223706  0.7323689899584281  0.7972503813079321  1.0000
  H   H21       1.0  0.5380441516325695  0.4799496977139828  0.4144130294978914  1.0000
  H   H22       1.0  0.4619558481545631  0.9799496992322734  0.0855869703216856  1.0000
  H   H23       1.0  0.46195584835866443  0.5200502999735148  0.5855869703500093  1.0000
  H   H24       1.0  0.5380441518366708  0.020050301129766034  0.9144130295262151  1.0000
  H   H25       1.0  0.4325755101406441  0.3078552380052423  0.474583048364386  1.0000
  H   H26       1.0  0.5674244896481199  0.8078552395235329  0.025416951963385878  1.0000
  H   H27       1.0  0.5674244898522213  0.6921447596822554  0.5254169519917096  1.0000
  H   H28       1.0  0.43257551034474545  0.1921447608385066  0.9745830483927097  1.0000
  H   H29       1.0  0.02093793524573292  0.27742499765276507  0.43320335514976843  1.0000
  H   H30       1.0  0.9790620645413994  0.777424996496514  0.06679664466980861  1.0000
  H   H31       1.0  0.979062064745501  0.7225750027092743  0.5667966446981323  1.0000
  H   H32       1.0  0.020937935449834286  0.22257500119098378  0.933203355178092  1.0000
  H   H33       1.0  0.16769864474524712  0.08891536961811172  0.19757342339768333  1.0000
  H   H34       1.0  0.8323013550418854  0.5889153711364022  0.30242657642189374  1.0000
  H   H35       1.0  0.8323013552459867  0.9110846307439276  0.8024265764502173  1.0000
  H   H36       1.0  0.1676986449493485  0.41108462922563715  0.697573423426007  1.0000
  H   H37       1.0  0.11355896246309624  0.079274994672864  0.2664674844935327  1.0000
  H   H38       1.0  0.8864410373240362  0.5792749961911545  0.23353251532604438  1.0000
  H   H39       1.0  0.8864410375281376  0.9207250056891754  0.733532515354368  1.0000
  H   H40       1.0  0.11355896266719762  0.4207250041708848  0.7664674845218563  1.0000
  H   H41       1.0  0.12086276296721325  0.47950879683627373  0.22132942245579756  1.0000
  H   H42       1.0  0.8791372373848274  0.9795087983545643  0.2786705774499368  1.0000
  H   H43       1.0  0.8791372370240206  0.520491200851224  0.7786705773921031  1.0000
  H   H44       1.0  0.1208627626064064  0.020491202007475156  0.7213294223979639  1.0000
  H   H45       1.0  0.9384803915773194  0.11352380394786256  0.14866688030654127  1.0000
  H   H46       1.0  0.06151960820981302  0.6135238027916115  0.3513331195130358  1.0000
  H   H47       1.0  0.06151960841391438  0.8864761964141769  0.8513331195413595  1.0000
  H   H48       1.0  0.9384803917814207  0.3864761948958863  0.6486668803348649  1.0000
  C   C1        1.0  0.27432851779577727  0.2632328682895438  0.4836698707513853  1.0000
  C   C2        1.0  0.7256714825578948  0.7632328671332926  0.016330129662543894  1.0000
  C   C3        1.0  0.725671482197088  0.7367671320724957  0.5163301296047103  1.0000
  C   C4        1.0  0.2743285174349704  0.23676713322874676  0.9836698706935516  1.0000
  C   C5        1.0  0.19996231298507988  0.191592770195758  0.49780559771523547  1.0000
  C   C6        1.0  0.8000376868020526  0.6915927690395068  0.0021944021043415877  1.0000
  C   C7        1.0  0.800037687006154  0.8084072301662814  0.5021944021326652  1.0000
  C   C8        1.0  0.19996231318918126  0.3084072313225326  0.997805597743559  1.0000
  C   C9        1.0  0.19413005111957082  0.029217990943459046  0.5607956530125242  1.0000
  C   C10       1.0  0.8058699485108561  0.5292179897872079  0.9392043467775427  1.0000
  C   C11       1.0  0.805869948871663  0.9707820094185804  0.43920434683537646  1.0000
  C   C12       1.0  0.1941300514803777  0.4707820105748315  0.06079565307035792  1.0000
  C   C13       1.0  0.25890709108221405  0.9487568293545068  0.6075894252617963  1.0000
  C   C14       1.0  0.7410929091147527  0.4487568305107579  0.892410575122623  1.0000
  C   C15       1.0  0.7410929089106513  0.051243171007532666  0.3924105750942992  1.0000
  C   C16       1.0  0.2589070908781127  0.5512431698512815  0.1075894252334726  1.0000
  C   C17       1.0  0.32845856416680663  0.03038380495906868  0.5889241814494147  1.0000
  C   C18       1.0  0.67154143603016  0.5303838038028175  0.9110758189350042  1.0000
  C   C19       1.0  0.6715414358260586  0.9696161954029707  0.4110758189066807  1.0000
  C   C20       1.0  0.3284585639627053  0.4696161965592219  0.0889241814210911  1.0000
  C   C21       1.0  0.34602480220164317  0.5027854243928693  0.39478220140280346  1.0000
  C   C22       1.0  0.6539751975854893  0.0027854255491205227  0.10521779841677355  1.0000
  C   C23       1.0  0.6539751977895906  0.4972145732946283  0.6052177984450972  1.0000
  C   C24       1.0  0.3460248024057446  0.9972145748129189  0.8947822014311271  1.0000
  C   C25       1.0  0.332772399753965  0.6667130184991275  0.3294804560129423  1.0000
  C   C26       1.0  0.6672276000331675  0.16671301698083688  0.17051954380663473  1.0000
  C   C27       1.0  0.6672276002372688  0.333286981862912  0.6705195438349584  1.0000
  C   C28       1.0  0.3327723999580664  0.8332869833812026  0.829480456041266  1.0000
  C   C29       1.0  0.3916780480898591  0.7594731381286948  0.2956622321448381  1.0000
  C   C30       1.0  0.6083219522638129  0.25947313661040416  0.20433776826909103  1.0000
  C   C31       1.0  0.6083219524679144  0.24052686223334468  0.7043377682974147  1.0000
  C   C32       1.0  0.39167804772905224  0.7405268610770935  0.7956622320870044  1.0000
  C   C33       1.0  0.46618978402460565  0.692881368591114  0.32498629000301643  1.0000
  C   C34       1.0  0.5338102157625267  0.19288136707282352  0.17501370981656061  1.0000
  C   C35       1.0  0.5338102159666281  0.3071186317709253  0.6750137098448843  1.0000
  C   C36       1.0  0.466189784228707  0.807118633289216  0.8249862900313402  1.0000
  C   C37       1.0  0.48002175108203676  0.5316061282105092  0.38985171740249364  1.0000
  C   C38       1.0  0.5199782487050957  0.03160612936676035  0.11014828241708337  1.0000
  C   C39       1.0  0.5199782489091971  0.4683938721515302  0.610148282445407  1.0000
  C   C40       1.0  0.48002175128613817  0.9683938709952791  0.8898517174308171  1.0000
  C   C41       1.0  0.42160697478517944  0.4376204346050558  0.42468404469900545  1.0000
  C   C42       1.0  0.578393025001953  0.9376204334488046  0.0753159551205716  1.0000
  C   C43       1.0  0.5783930252060544  0.5623795657569836  0.5753159551488952  1.0000
  C   C44       1.0  0.42160697498928085  0.06237956691323475  0.924684044727329  1.0000
  C   C45       1.0  0.13110376899256712  0.28843998808599897  0.4500999644126048  1.0000
  C   C46       1.0  0.8688962313594735  0.7884399896042895  0.04990003549312967  1.0000
  C   C47       1.0  0.8688962309986666  0.7115600096014987  0.549900035435296  1.0000
  C   C48       1.0  0.13110376863176024  0.21156001075774986  0.950099964354771  1.0000
  C   C49       1.0  0.11730577914519343  0.18900181324991622  0.21549551823475646  1.0000
  C   C50       1.0  0.8826942212084787  0.6890018120936651  0.2845044821791727  1.0000
  C   C51       1.0  0.8826942208476719  0.8109981871121232  0.7845044821213389  1.0000
  C   C52       1.0  0.11730577878438656  0.31099818559383263  0.7154955181769228  1.0000
  C   C53       1.0  0.04772429815728081  0.08810458229454363  0.16628834706330545  1.0000
  C   C54       1.0  0.9522757016298516  0.5881045811382924  0.33371165275627157  1.0000
  C   C55       1.0  0.9522757018339529  0.9118954180674957  0.8337116527845951  1.0000
  C   C56       1.0  0.04772429836138218  0.41189541922374695  0.6662883470916291  1.0000
  N   N1        1.0  0.3367049284972859  0.1808318211081586  0.5291615651549473  1.0000
  N   N2        1.0  0.6632950716980492  0.6808318226264491  0.9708384347212771  1.0000
  N   N3        1.0  0.6632950714939478  0.8191681792538809  0.4708384346929535  1.0000
  N   N4        1.0  0.33670492829318455  0.31916817773559025  0.029161565126623587  1.0000
  N   N5        1.0  0.2820538509169061  0.4183031852436558  0.42229394367996154  1.0000
  N   N6        1.0  0.7179461494351346  0.9183031867619463  0.07770605622577283  1.0000
  N   N7        1.0  0.7179461490743276  0.5816968124438419  0.577706056167939  1.0000
  N   N8        1.0  0.2820538505560992  0.08169681360009304  0.9222939436221278  1.0000
  O   O1        1.0  0.06717301400328635  0.18872118428500545  0.468379045931509  1.0000
  O   O2        1.0  0.9328269857838459  0.6887211831287543  0.031620953888068015  1.0000
  O   O3        1.0  0.9328269859879474  0.8112788160770339  0.5316209539163916  1.0000
  O   O4        1.0  0.06717301420738772  0.31127881723328515  0.9683790459598327  1.0000
  O   O5        1.0  0.13330295395842678  0.45984667601775736  0.3950121811423361  1.0000
  O   O6        1.0  0.8666970458303371  0.9598466748615061  0.10498781918543569  1.0000
  O   O7        1.0  0.8666970460344384  0.5401533243442821  0.6049878192137593  1.0000
  O   O8        1.0  0.1333029541625282  0.04015332550053321  0.8950121811706597  1.0000
  O   O9        1.0  0.9842366826069272  0.2184547573347271  0.18132470258611855  1.0000
  O   O10       1.0  0.015763317746744988  0.718454756178476  0.3186752978278106  1.0000
  O   O11       1.0  0.015763317385938107  0.7815452430273123  0.8186752977699768  1.0000
  O   O12       1.0  0.9842366822461202  0.28154524150902177  0.6813247025282848  1.0000
  O   O13       1.0  0.05008266037960994  0.8902198246775975  0.11565290163295962  1.0000
  O   O14       1.0  0.9499173394091541  0.3902198258338487  0.3843470986948122  1.0000
  O   O15       1.0  0.9499173396132554  0.10978017568444189  0.8843470987231359  1.0000
  O   O16       1.0  0.0500826605837113  0.6097801745281908  0.6156529016612833  1.0000
  F   F1        1.0  0.25986726715564307  0.7352882977171583  0.2989737274401592  1.0000
  F   F2        1.0  0.7401327331963976  0.23528829619886776  0.20102627246557525  1.0000
  F   F3        1.0  0.7401327328355907  0.2647117026448811  0.7010262724077415  1.0000
  F   F4        1.0  0.2598672667948362  0.7647117041631717  0.7989737273823254  1.0000
  F   F5        1.0  0.37465854661417214  0.9195928855502021  0.23247133023212138  1.0000
  F   F6        1.0  0.6253414531729604  0.4195928867064532  0.26752866958745564  1.0000
  F   F7        1.0  0.6253414533770617  0.0804071148118373  0.7675286696157793  1.0000
  F   F8        1.0  0.3746585468182735  0.5804071136555862  0.7324713302604451  1.0000
