data_image0
_chemical_formula_structural       H112C40N16I32
_chemical_formula_sum              "H112 C40 N16 I32"
_cell_length_a       10.285250702821559
_cell_length_b       12.558796928094027
_cell_length_c       21.36832821501738
_cell_angle_alpha    90.0
_cell_angle_beta     90.0
_cell_angle_gamma    90.0

_space_group_name_H-M_alt    "P 1"
_space_group_IT_number       1

loop_
  _space_group_symop_operation_xyz
  'x, y, z'

loop_
  _atom_site_type_symbol
  _atom_site_label
  _atom_site_symmetry_multiplicity
  _atom_site_fract_x
  _atom_site_fract_y
  _atom_site_fract_z
  _atom_site_occupancy
  H   H1        1.0  0.5730841775575786  0.03980200435296485  0.5722061481350218  1.0000
  H   H2        1.0  0.9269158230031916  0.9601979957987993  0.07220614801843285  1.0000
  H   H3        1.0  0.4269158231403569  0.5398020040307195  0.9277938517467627  1.0000
  H   H4        1.0  0.07308417672247781  0.46019799612104445  0.427793852098156  1.0000
  H   H5        1.0  0.4269158231403569  0.9601979957987993  0.427793852098156  1.0000
  H   H6        1.0  0.07308417672247781  0.03980200435296485  0.9277938517467627  1.0000
  H   H7        1.0  0.5730841775575786  0.46019799612104445  0.07220614801843285  1.0000
  H   H8        1.0  0.9269158230031916  0.5398020040307195  0.5722061481350218  1.0000
  H   H9        1.0  0.6864441902289419  0.1357252553536343  0.6004267779349796  1.0000
  H   H10       1.0  0.8135558093595622  0.8642747447981297  0.10042677781839071  1.0000
  H   H11       1.0  0.31355580949672757  0.635725255031389  0.8995732219468047  1.0000
  H   H12       1.0  0.18644419036610715  0.364274745120375  0.3995732218302159  1.0000
  H   H13       1.0  0.31355580949672757  0.8642747447981297  0.3995732218302159  1.0000
  H   H14       1.0  0.18644419036610715  0.1357252553536343  0.8995732219468047  1.0000
  H   H15       1.0  0.6864441902289419  0.364274745120375  0.10042677781839071  1.0000
  H   H16       1.0  0.8135558093595622  0.635725255031389  0.6004267779349796  1.0000
  H   H17       1.0  0.6319813554196425  0.2213029063144345  0.7076567388820267  1.0000
  H   H18       1.0  0.8680186441688615  0.7786970930410749  0.2076567387654379  1.0000
  H   H19       1.0  0.3680186443060268  0.7213029067884438  0.7923432609997575  1.0000
  H   H20       1.0  0.13198135555680784  0.2786970933633202  0.29234326088316864  1.0000
  H   H21       1.0  0.3680186443060268  0.7786970930410749  0.29234326088316864  1.0000
  H   H22       1.0  0.13198135555680784  0.2213029063144345  0.7923432609997575  1.0000
  H   H23       1.0  0.6319813554196425  0.2786970933633202  0.2076567387654379  1.0000
  H   H24       1.0  0.8680186441688615  0.7213029067884438  0.7076567388820267  1.0000
  H   H25       1.0  0.5246218323603672  0.14604987965820762  0.7557184777165248  1.0000
  H   H26       1.0  0.9753781672281371  0.8539501204935565  0.2557184775999359  1.0000
  H   H27       1.0  0.4753781673653023  0.6460498793359624  0.7442815226332419  1.0000
  H   H28       1.0  0.024621832497532418  0.3539501208158017  0.244281522516653  1.0000
  H   H29       1.0  0.4753781673653023  0.8539501204935565  0.244281522516653  1.0000
  H   H30       1.0  0.024621832497532418  0.14604987965820762  0.7442815226332419  1.0000
  H   H31       1.0  0.5246218323603672  0.3539501208158017  0.2557184775999359  1.0000
  H   H32       1.0  0.9753781672281371  0.6460498793359624  0.7557184777165248  1.0000
  H   H33       1.0  0.34039928545830617  0.2106264417798376  0.6766702558339677  1.0000
  H   H34       1.0  0.15960071440452853  0.7893735583719265  0.17667025618536109  1.0000
  H   H35       1.0  0.6596007152396293  0.7106264414575924  0.8233297440478167  1.0000
  H   H36       1.0  0.8403992853211409  0.2893735578979171  0.3233297439312278  1.0000
  H   H37       1.0  0.6596007152396293  0.7893735583719265  0.3233297439312278  1.0000
  H   H38       1.0  0.8403992853211409  0.2106264417798376  0.8233297440478167  1.0000
  H   H39       1.0  0.34039928545830617  0.2893735578979171  0.17667025618536109  1.0000
  H   H40       1.0  0.15960071440452853  0.7106264414575924  0.6766702558339677  1.0000
  H   H41       1.0  0.39349182989674136  0.29216626568679305  0.7392438440223178  1.0000
  H   H42       1.0  0.10650816996609339  0.7078337336687163  0.23924384390572886  1.0000
  H   H43       1.0  0.6065081698289281  0.7921662661608023  0.7607561563274489  1.0000
  H   H44       1.0  0.8934918297595761  0.20783373399096164  0.26075615621086  1.0000
  H   H45       1.0  0.6065081698289281  0.7078337336687163  0.26075615621086  1.0000
  H   H46       1.0  0.8934918297595761  0.29216626568679305  0.7607561563274489  1.0000
  H   H47       1.0  0.39349182989674136  0.20783373399096164  0.23924384390572886  1.0000
  H   H48       1.0  0.10650816996609339  0.7921662661608023  0.7392438440223178  1.0000
  H   H49       1.0  0.6363210824024526  0.32250625702367247  0.6056091229872319  1.0000
  H   H50       1.0  0.8636789181583177  0.6774937431280916  0.10560912287064309  1.0000
  H   H51       1.0  0.36367891829548293  0.8225062567014272  0.8943908773625346  1.0000
  H   H52       1.0  0.1363210815673518  0.17749374345033686  0.3943908772459458  1.0000
  H   H53       1.0  0.36367891829548293  0.6774937431280916  0.3943908772459458  1.0000
  H   H54       1.0  0.1363210815673518  0.32250625702367247  0.8943908773625346  1.0000
  H   H55       1.0  0.6363210824024526  0.17749374345033686  0.10560912287064309  1.0000
  H   H56       1.0  0.8636789181583177  0.8225062567014272  0.6056091229872319  1.0000
  H   H57       1.0  0.5092054653138641  0.3749806033940468  0.558749404719881  1.0000
  H   H58       1.0  0.9907945342746399  0.6250193967577171  0.058749404603292164  1.0000
  H   H59       1.0  0.49079453441180526  0.8749806038680562  0.9412505956298857  1.0000
  H   H60       1.0  0.009205465451029429  0.12501939628370787  0.4412505955132967  1.0000
  H   H61       1.0  0.49079453441180526  0.6250193967577171  0.4412505955132967  1.0000
  H   H62       1.0  0.009205465451029429  0.3749806033940468  0.9412505956298857  1.0000
  H   H63       1.0  0.5092054653138641  0.12501939628370787  0.058749404603292164  1.0000
  H   H64       1.0  0.9907945342746399  0.8749806038680562  0.558749404719881  1.0000
  H   H65       1.0  0.5298440025876097  0.20315011020623283  0.518701749545875  1.0000
  H   H66       1.0  0.9701559979731605  0.7968498891492767  0.01870174942928613  1.0000
  H   H67       1.0  0.47015599811032577  0.7031501106802421  0.9812982503359094  1.0000
  H   H68       1.0  0.029844002724774943  0.29684988947152186  0.48129825068730275  1.0000
  H   H69       1.0  0.47015599811032577  0.7968498891492767  0.48129825068730275  1.0000
  H   H70       1.0  0.029844002724774943  0.20315011020623283  0.9812982503359094  1.0000
  H   H71       1.0  0.5298440025876097  0.29684988947152186  0.01870174942928613  1.0000
  H   H72       1.0  0.9701559979731605  0.7031501106802421  0.518701749545875  1.0000
  H   H73       1.0  0.39894132564745005  0.18536477684358102  0.5698143686057238  1.0000
  H   H74       1.0  0.10105867518765071  0.814635223308183  0.06981436848913482  1.0000
  H   H75       1.0  0.6010586750504855  0.6853647765213357  0.9301856317440429  1.0000
  H   H76       1.0  0.8989413255102848  0.31463522363042834  0.43018563162745405  1.0000
  H   H77       1.0  0.6010586750504855  0.814635223308183  0.43018563162745405  1.0000
  H   H78       1.0  0.8989413255102848  0.18536477684358102  0.9301856317440429  1.0000
  H   H79       1.0  0.39894132564745005  0.31463522363042834  0.06981436848913482  1.0000
  H   H80       1.0  0.10105867518765071  0.6853647765213357  0.5698143686057238  1.0000
  H   H81       1.0  0.5115575120163682  0.3996044620144707  0.675830733910704  1.0000
  H   H82       1.0  0.9884424885444019  0.6003955381372934  0.17583073379411512  1.0000
  H   H83       1.0  0.48844248770930115  0.8996044616922254  0.8241692659710804  1.0000
  H   H84       1.0  0.011557512153533584  0.10039553845953868  0.3241692663224738  1.0000
  H   H85       1.0  0.48844248770930115  0.6003955381372934  0.3241692663224738  1.0000
  H   H86       1.0  0.011557512153533584  0.3996044620144707  0.8241692659710804  1.0000
  H   H87       1.0  0.5115575120163682  0.10039553845953868  0.17583073379411512  1.0000
  H   H88       1.0  0.9884424885444019  0.8996044616922254  0.675830733910704  1.0000
  H   H89       1.0  0.36998157847101143  0.3792030181925038  0.6372785457511714  1.0000
  H   H90       1.0  0.1300184213918233  0.6207969819592601  0.1372785456345825  1.0000
  H   H91       1.0  0.630018421254658  0.8792030178702586  0.8627214541306131  1.0000
  H   H92       1.0  0.8699815793061121  0.12079698228150551  0.36272145401402406  1.0000
  H   H93       1.0  0.630018421254658  0.6207969819592601  0.36272145401402406  1.0000
  H   H94       1.0  0.8699815793061121  0.3792030181925038  0.8627214541306131  1.0000
  H   H95       1.0  0.36998157847101143  0.12079698228150551  0.1372785456345825  1.0000
  H   H96       1.0  0.1300184213918233  0.8792030178702586  0.6372785457511714  1.0000
  H   H97       1.0  0.4555640280809683  0.0476747361573006  0.6654786376786488  1.0000
  H   H98       1.0  0.04443597178186637  0.9523252631982089  0.1654786375620599  1.0000
  H   H99       1.0  0.544435971644701  0.5476747366313099  0.8345213626711179  1.0000
  H   H100      1.0  0.9555640289160691  0.4523252635204541  0.33452136255452897  1.0000
  H   H101      1.0  0.544435971644701  0.9523252631982089  0.33452136255452897  1.0000
  H   H102      1.0  0.9555640289160691  0.0476747361573006  0.8345213626711179  1.0000
  H   H103      1.0  0.4555640280809683  0.4523252635204541  0.1654786375620599  1.0000
  H   H104      1.0  0.04443597178186637  0.5476747366313099  0.6654786376786488  1.0000
  H   H105      1.0  0.6135192405440267  0.03523948850625818  0.6827308965493694  1.0000
  H   H106      1.0  0.8864807590444774  0.9647605116455058  0.1827308964327804  1.0000
  H   H107      1.0  0.3864807591816427  0.5352394889802675  0.817269103332415  1.0000
  H   H108      1.0  0.11351924068119201  0.4647605111714965  0.3172691036838085  1.0000
  H   H109      1.0  0.3864807591816427  0.9647605116455058  0.3172691036838085  1.0000
  H   H110      1.0  0.11351924068119201  0.03523948850625818  0.817269103332415  1.0000
  H   H111      1.0  0.6135192405440267  0.4647605111714965  0.1827308964327804  1.0000
  H   H112      1.0  0.8864807590444774  0.5352394889802675  0.6827308965493694  1.0000
  C   C1        1.0  0.582975057511734  0.11418280176122167  0.5985942082736582  1.0000
  C   C2        1.0  0.9170249420767703  0.8858171975942878  0.09859420815706926  1.0000
  C   C3        1.0  0.41702494221393543  0.614182802235231  0.9014057920761086  1.0000
  C   C4        1.0  0.0829750576488992  0.385817197916533  0.40140579195951964  1.0000
  C   C5        1.0  0.41702494221393543  0.8858171975942878  0.40140579195951964  1.0000
  C   C6        1.0  0.0829750576488992  0.11418280176122167  0.9014057920761086  1.0000
  C   C7        1.0  0.582975057511734  0.385817197916533  0.09859420815706926  1.0000
  C   C8        1.0  0.9170249420767703  0.614182802235231  0.5985942082736582  1.0000
  C   C9        1.0  0.5376284321862033  0.180286141496168  0.7088640181666023  1.0000
  C   C10       1.0  0.9623715674023009  0.8197138578593415  0.2088640185179957  1.0000
  C   C11       1.0  0.4623715675394661  0.6802861419701773  0.7911359817151821  1.0000
  C   C12       1.0  0.037628432323368564  0.31971385818158665  0.29113598159859316  1.0000
  C   C13       1.0  0.4623715675394661  0.8197138578593415  0.29113598159859316  1.0000
  C   C14       1.0  0.037628432323368564  0.180286141496168  0.7911359817151821  1.0000
  C   C15       1.0  0.5376284321862033  0.31971385818158665  0.2088640185179957  1.0000
  C   C16       1.0  0.9623715674023009  0.6802861419701773  0.7088640181666023  1.0000
  C   C17       1.0  0.42447108059333255  0.25419933121607513  0.6954324592204844  1.0000
  C   C18       1.0  0.07552891926950217  0.7458006689356889  0.19543245910389548  1.0000
  C   C19       1.0  0.575528919132337  0.7541993308938298  0.8045675406612999  1.0000
  C   C20       1.0  0.9244710804561672  0.24580066846167958  0.30456754101269345  1.0000
  C   C21       1.0  0.575528919132337  0.7458006689356889  0.30456754101269345  1.0000
  C   C22       1.0  0.9244710804561672  0.25419933121607513  0.8045675406612999  1.0000
  C   C23       1.0  0.42447108059333255  0.24580066846167958  0.19543245910389548  1.0000
  C   C24       1.0  0.07552891926950217  0.7541993308938298  0.6954324592204844  1.0000
  C   C25       1.0  0.5329659682963493  0.313847652969271  0.5935586416669838  1.0000
  C   C26       1.0  0.9670340322644209  0.6861523463862385  0.09355864201837719  1.0000
  C   C27       1.0  0.46703403142932004  0.8138476534432804  0.9064413582148005  1.0000
  C   C28       1.0  0.03296596843351466  0.18615234670848374  0.4064413580982117  1.0000
  C   C29       1.0  0.46703403142932004  0.6861523463862385  0.4064413580982117  1.0000
  C   C30       1.0  0.03296596843351466  0.313847652969271  0.9064413582148005  1.0000
  C   C31       1.0  0.5329659682963493  0.18615234670848374  0.09355864201837719  1.0000
  C   C32       1.0  0.9670340322644209  0.8138476534432804  0.5935586416669838  1.0000
  C   C33       1.0  0.503793786823156  0.20290725732649742  0.5686245062194781  1.0000
  C   C34       1.0  0.9962062137376142  0.7970927428252667  0.06862450610288921  1.0000
  C   C35       1.0  0.4962062138747794  0.7029072570042522  0.9313754936623062  1.0000
  C   C36       1.0  0.003793786960321308  0.2970927431475119  0.4313754935457173  1.0000
  C   C37       1.0  0.4962062138747794  0.7970927428252667  0.4313754935457173  1.0000
  C   C38       1.0  0.003793786960321308  0.20290725732649742  0.9313754936623062  1.0000
  C   C39       1.0  0.503793786823156  0.2970927431475119  0.06862450610288921  1.0000
  C   C40       1.0  0.9962062137376142  0.7029072570042522  0.5686245062194781  1.0000
  N   N1        1.0  0.5438643764381411  0.0883147841588936  0.6643813553005393  1.0000
  N   N2        1.0  0.9561356241226291  0.9116852159928704  0.16438135518395036  1.0000
  N   N3        1.0  0.45613562328752827  0.5883147838366484  0.8356186445812451  1.0000
  N   N4        1.0  0.04386437657530643  0.4116852155188611  0.33561864446465617  1.0000
  N   N5        1.0  0.45613562328752827  0.9116852159928704  0.33561864446465617  1.0000
  N   N6        1.0  0.04386437657530643  0.0883147841588936  0.8356186445812451  1.0000
  N   N7        1.0  0.5438643764381411  0.4116852155188611  0.16438135518395036  1.0000
  N   N8        1.0  0.9561356241226291  0.5883147838366484  0.6643813553005393  1.0000
  N   N9        1.0  0.4567657926618365  0.3426821569487025  0.6512210286165656  1.0000
  N   N10       1.0  0.043234207200998236  0.6573178432030615  0.1512210284999767  1.0000
  N   N11       1.0  0.543234208036099  0.8426821566264572  0.8487789712652187  1.0000
  N   N12       1.0  0.9567657925246712  0.1573178435253068  0.3487789711486298  1.0000
  N   N13       1.0  0.543234208036099  0.6573178432030615  0.3487789711486298  1.0000
  N   N14       1.0  0.9567657925246712  0.3426821569487025  0.8487789712652187  1.0000
  N   N15       1.0  0.4567657926618365  0.1573178435253068  0.1512210284999767  1.0000
  N   N16       1.0  0.043234207200998236  0.8426821566264572  0.6512210286165656  1.0000
  I   I1        1.0  0.40719142498403904  0.628407257891519  0.5892227011541042  1.0000
  I   I2        1.0  0.09280857487879562  0.37159274226024497  0.08922270103751535  1.0000
  I   I3        1.0  0.5928085747416303  0.12840725741750972  0.9107772987276802  1.0000
  I   I4        1.0  0.9071914258191397  0.8715927427342544  0.41077729861109125  1.0000
  I   I5        1.0  0.5928085747416303  0.37159274226024497  0.41077729861109125  1.0000
  I   I6        1.0  0.9071914258191397  0.628407257891519  0.9107772987276802  1.0000
  I   I7        1.0  0.40719142498403904  0.8715927427342544  0.08922270103751535  1.0000
  I   I8        1.0  0.09280857487879562  0.12840725741750972  0.5892227011541042  1.0000
  I   I9        1.0  0.5922969955733601  0.7929457866878123  0.6255418334788586  1.0000
  I   I10       1.0  0.90770300498741  0.20705421346395161  0.12554183336226982  1.0000
  I   I11       1.0  0.4077030051245753  0.2929457862138031  0.8744581664029257  1.0000
  I   I12       1.0  0.09229699473825938  0.7070542131417062  0.37445816675431903  1.0000
  I   I13       1.0  0.4077030051245753  0.20705421346395161  0.37445816675431903  1.0000
  I   I14       1.0  0.09229699473825938  0.7929457866878123  0.8744581664029257  1.0000
  I   I15       1.0  0.5922969955733601  0.7070542131417062  0.12554183336226982  1.0000
  I   I16       1.0  0.90770300498741  0.2929457862138031  0.6255418334788586  1.0000
  I   I17       1.0  0.21882109975040118  0.4571909214612481  0.5573818311920904  1.0000
  I   I18       1.0  0.2811789001124335  0.5428090786905159  0.05738183107550151  1.0000
  I   I19       1.0  0.7811789009475344  0.9571909211390028  0.9426181691576763  1.0000
  I   I20       1.0  0.7188210996132359  0.042809079012761216  0.4426181690410874  1.0000
  I   I21       1.0  0.7811789009475344  0.5428090786905159  0.4426181690410874  1.0000
  I   I22       1.0  0.7188210996132359  0.4571909214612481  0.9426181691576763  1.0000
  I   I23       1.0  0.21882109975040118  0.042809079012761216  0.05738183107550151  1.0000
  I   I24       1.0  0.2811789001124335  0.9571909211390028  0.5573818311920904  1.0000
  I   I25       1.0  0.6953116619741838  0.46929016957155745  0.7382867555784204  1.0000
  I   I26       1.0  0.8046883376143203  0.5307098305802066  0.23828675546183148  1.0000
  I   I27       1.0  0.3046883377514856  0.9692901692493121  0.761713244303364  1.0000
  I   I28       1.0  0.1953116621113491  0.03070983090245191  0.2617132441867751  1.0000
  I   I29       1.0  0.3046883377514856  0.5307098305802066  0.2617132441867751  1.0000
  I   I30       1.0  0.1953116621113491  0.46929016957155745  0.761713244303364  1.0000
  I   I31       1.0  0.6953116619741838  0.03070983090245191  0.23828675546183148  1.0000
  I   I32       1.0  0.8046883376143203  0.9692901692493121  0.7382867555784204  1.0000
