data_image0
_chemical_formula_structural       H48C44N4O12
_chemical_formula_sum              "H48 C44 N4 O12"
_cell_length_a       5.514052699499118
_cell_length_b       8.2424894719487
_cell_length_c       22.06257216213063
_cell_angle_alpha    90.0
_cell_angle_beta     98.83501785285145
_cell_angle_gamma    90.0

_space_group_name_H-M_alt    "P 1"
_space_group_IT_number       1

loop_
  _space_group_symop_operation_xyz
  'x, y, z'

loop_
  _atom_site_type_symbol
  _atom_site_label
  _atom_site_symmetry_multiplicity
  _atom_site_fract_x
  _atom_site_fract_y
  _atom_site_fract_z
  _atom_site_occupancy
  H   H1        1.0  0.953322753827641  0.07950133660832881  0.2632018234069347  1.0000
  H   H2        1.0  0.04667724695832425  0.579501337096731  0.23679817663170494  1.0000
  H   H3        1.0  0.046677247064798706  0.92049866315525  0.7367981770383917  1.0000
  H   H4        1.0  0.9533227539288539  0.4204986638800734  0.763201823360165  1.0000
  H   H5        1.0  0.28352505671351214  0.9486027221035028  0.33785931528220237  1.0000
  H   H6        1.0  0.7164749440724532  0.44860272282832625  0.16214068475643723  1.0000
  H   H7        1.0  0.7164749441736661  0.051397277660075937  0.6621406847096675  1.0000
  H   H8        1.0  0.28352505497940783  0.5513972769352524  0.8378593151662808  1.0000
  H   H9        1.0  0.6129086918158323  0.7911437451261066  0.2997358224104345  1.0000
  H   H10       1.0  0.38709130897013305  0.29114374585093017  0.20026417762820514  1.0000
  H   H11       1.0  0.38709130907134603  0.208856254637472  0.7002641775814353  1.0000
  H   H12       1.0  0.6129086919170453  0.7088562539126485  0.7997358223636647  1.0000
  H   H13       1.0  0.6204921758948959  0.7684568092632951  0.18764567965485676  1.0000
  H   H14       1.0  0.379507823055752  0.2684568087748929  0.3123543203146311  1.0000
  H   H15       1.0  0.37950782315696496  0.23154319050028363  0.8123543202678613  1.0000
  H   H16       1.0  0.6204921759961088  0.7315431909886858  0.6876456796080869  1.0000
  H   H17       1.0  0.29534437386801504  0.899309057685398  0.11368703517097241  1.0000
  H   H18       1.0  0.7046556269179501  0.3993090571969959  0.38631296486766725  1.0000
  H   H19       1.0  0.7046556270191632  0.1006909420781806  0.8863129648208974  1.0000
  H   H20       1.0  0.295344373969228  0.6006909425665828  0.6136870351242026  1.0000
  H   H21       1.0  0.7720347693414837  0.14216288221997173  0.16300870225250155  1.0000
  H   H22       1.0  0.22796523144448153  0.642162882708374  0.33699129778613807  1.0000
  H   H23       1.0  0.22796523154569448  0.8578371175436069  0.8369912977393682  1.0000
  H   H24       1.0  0.7720347694426967  0.35783711705520477  0.6630087022057318  1.0000
  H   H25       1.0  0.012338057037734352  0.009901298664407676  0.0551770726258198  1.0000
  H   H26       1.0  0.9876619419129138  0.5099012991528099  0.4448229273436681  1.0000
  H   H27       1.0  0.9876619420141267  0.990098701099171  0.9448229272968982  1.0000
  H   H28       1.0  0.012338057138947336  0.4900987006107688  0.55517707257905  1.0000
  H   H29       1.0  0.4058213410209038  0.3032418589682557  0.036181700200282337  1.0000
  H   H30       1.0  0.5941786579297442  0.8032418594566579  0.4638182997692055  1.0000
  H   H31       1.0  0.5941786580309572  0.696758140795323  0.9638182997224357  1.0000
  H   H32       1.0  0.4058213411221168  0.19675814030692082  0.5361817001535126  1.0000
  H   H33       1.0  0.5612733883919313  0.7613451386691752  0.055689793048602394  1.0000
  H   H34       1.0  0.4387266105587167  0.26134513818077304  0.4443102069208854  1.0000
  H   H35       1.0  0.4387266106599297  0.23865486109440345  0.9443102068741157  1.0000
  H   H36       1.0  0.5612733884984057  0.7386548615828056  0.555689793455289  1.0000
  H   H37       1.0  0.054622074543816575  0.5767912747938284  0.12469277843735892  1.0000
  H   H38       1.0  0.9453779244068314  0.07679127430542618  0.375307221532129  1.0000
  H   H39       1.0  0.9453779245133058  0.4232087249697503  0.8753072219388156  1.0000
  H   H40       1.0  0.054622074645029564  0.9232087254581526  0.6246927783905891  1.0000
  H   H41       1.0  0.31429182173487247  0.5411087530264738  0.08790191621701536  1.0000
  H   H42       1.0  0.6857081790510927  0.041108752538071655  0.4120980838216242  1.0000
  H   H43       1.0  0.6857081791523056  0.45889124673710485  0.9120980837748546  1.0000
  H   H44       1.0  0.31429182183608545  0.958891247225507  0.5879019161702456  1.0000
  H   H45       1.0  0.12249769331047032  0.3767817794089054  0.10125726131070968  1.0000
  H   H46       1.0  0.8775023074754948  0.8767817798973075  0.39874273872793  1.0000
  H   H47       1.0  0.8775023075767078  0.6232182203546733  0.8987427386811602  1.0000
  H   H48       1.0  0.12249769341168329  0.12321821986627114  0.6012572612639399  1.0000
  C   C1        1.0  0.10110636997337939  0.997166273365809  0.18352618414785266  1.0000
  C   C2        1.0  0.8988936289772687  0.4971662728774068  0.3164738158216352  1.0000
  C   C3        1.0  0.8988936290784816  0.002833726397769716  0.8164738157748654  1.0000
  C   C4        1.0  0.10110637007459237  0.5028337268861719  0.6835261841010829  1.0000
  C   C5        1.0  0.10003352447454734  0.010275965809632418  0.2471660252162405  1.0000
  C   C6        1.0  0.8999664744761005  0.5102759650848089  0.25283397475324737  1.0000
  C   C7        1.0  0.8999664745773136  0.9897240351671721  0.7528339747064775  1.0000
  C   C8        1.0  0.10003352457576033  0.4897240346787698  0.7471660251694707  1.0000
  C   C9        1.0  0.28385007490355185  0.9372879960953723  0.28869427103329987  1.0000
  C   C10       1.0  0.7161499240470961  0.43728799682019576  0.211305728936188  1.0000
  C   C11       1.0  0.716149924148309  0.06271200366820646  0.7113057288894182  1.0000
  C   C12       1.0  0.28385007500476483  0.562712002943383  0.78869427098653  1.0000
  C   C13       1.0  0.4705030092535053  0.8496648632472269  0.2673282248239151  1.0000
  C   C14       1.0  0.5294969915324599  0.34966486275882475  0.23267177521472454  1.0000
  C   C15       1.0  0.529496991633673  0.15033513651635177  0.7326717751679548  1.0000
  C   C16       1.0  0.4705030093547182  0.6503351370047539  0.7673282247771454  1.0000
  C   C17       1.0  0.4741298151709207  0.8361726773756558  0.2042123593982645  1.0000
  C   C18       1.0  0.5258701856150445  0.3361726781004793  0.29578764064037516  1.0000
  C   C19       1.0  0.5258701838809402  0.16382732238792289  0.7957876405244536  1.0000
  C   C20       1.0  0.47412981527213366  0.6638273228763251  0.7042123593514947  1.0000
  C   C21       1.0  0.2916053268271548  0.9092245195465435  0.1627089699739505  1.0000
  C   C22       1.0  0.7083946739588105  0.40922451905814133  0.33729103006468913  1.0000
  C   C23       1.0  0.7083946740600234  0.09077548143026087  0.8372910300179195  1.0000
  C   C24       1.0  0.29160532692836777  0.5907754807054374  0.6627089699271806  1.0000
  C   C25       1.0  0.9083901789416448  0.07618625078468386  0.14158509218493437  1.0000
  C   C26       1.0  0.09160982000900318  0.576186251273086  0.3584149077845534  1.0000
  C   C27       1.0  0.09160982011021618  0.9238137489788948  0.8584149077377837  1.0000
  C   C28       1.0  0.9083901790428577  0.42381374849049264  0.6415850921381646  1.0000
  C   C29       1.0  0.8850133932130088  0.0750956846358775  0.0796205641160095  1.0000
  C   C30       1.0  0.1149866057376391  0.575095683911054  0.42037943585347837  1.0000
  C   C31       1.0  0.11498660583885208  0.9249043163409268  0.9203794358067086  1.0000
  C   C32       1.0  0.8850133933142218  0.42490431585252475  0.5796205640692397  1.0000
  C   C33       1.0  0.6872978684052918  0.1589756850111213  0.040637233225413974  1.0000
  C   C34       1.0  0.31270213238067335  0.6589756854995236  0.45936276681322563  1.0000
  C   C35       1.0  0.31270213248188633  0.8410243147524574  0.9593627667664559  1.0000
  C   C36       1.0  0.6872978685065049  0.3410243142640552  0.5406372331786441  1.0000
  C   C37       1.0  0.1232553779644219  0.5059262840664692  0.08911679185127093  1.0000
  C   C38       1.0  0.8767446228215434  0.005926284791292727  0.41088320818736873  1.0000
  C   C39       1.0  0.8767446229227563  0.49407371569710945  0.910883208140599  1.0000
  C   C40       1.0  0.12325537806563489  0.9940737161855117  0.5891167918045012  1.0000
  C   C41       1.0  0.9691905708297481  0.5355934266005546  0.0282832544777429  1.0000
  C   C42       1.0  0.03080942995621718  0.03559342732537808  0.4717167455608967  1.0000
  C   C43       1.0  0.030809430057430164  0.4644065731630241  0.971716745514127  1.0000
  C   C44       1.0  0.9691905709309611  0.9644065736514263  0.5282832544309731  1.0000
  N   N1        1.0  0.7738394911193873  0.6258773781339575  0.020919116233402153  1.0000
  N   N2        1.0  0.22616050966131654  0.12587737764555526  0.47908088335178106  1.0000
  N   N3        1.0  0.22616050793247372  0.37412262162962123  0.979080883689316  1.0000
  N   N4        1.0  0.7738394912258617  0.8741226221180235  0.5209191166400887  1.0000
  O   O1        1.0  0.535220736744179  0.24598601270893064  0.06876401569589313  1.0000
  O   O2        1.0  0.4647792640417862  0.7459860119841071  0.43123598434274657  1.0000
  O   O3        1.0  0.4647792641429992  0.7540139870546481  0.9312359842959769  1.0000
  O   O4        1.0  0.5352207368453921  0.25401398777947154  0.5687640156491234  1.0000
  O   O5        1.0  0.6663373838579029  0.14971681240233925  0.9831691693230458  1.0000
  O   O6        1.0  0.33366261529517094  0.6497168128907415  0.5168308305529024  1.0000
  O   O7        1.0  0.333662615193958  0.8502831873612394  0.01683083059967218  1.0000
  O   O8        1.0  0.6663373837566899  0.3502831880860629  0.48316916936981563  1.0000
  O   O9        1.0  0.710021687578542  0.6927617765764662  0.07332752180630335  1.0000
  O   O10       1.0  0.28997831137210595  0.19276177608806397  0.4266724781631845  1.0000
  O   O11       1.0  0.2899783114733189  0.3072382231871125  0.9266724781164146  1.0000
  O   O12       1.0  0.710021687679755  0.8072382236755148  0.5733275217595335  1.0000
