data_image0
_chemical_formula_structural       H20C44N4F20I4
_chemical_formula_sum              "H20 C44 N4 F20 I4"
_cell_length_a       11.925355117437352
_cell_length_b       9.080746725351482
_cell_length_c       11.377054612729468
_cell_angle_alpha    90.0
_cell_angle_beta     112.70844599039758
_cell_angle_gamma    90.0

_space_group_name_H-M_alt    "P 1"
_space_group_IT_number       1

loop_
  _space_group_symop_operation_xyz
  'x, y, z'

loop_
  _atom_site_type_symbol
  _atom_site_label
  _atom_site_symmetry_multiplicity
  _atom_site_fract_x
  _atom_site_fract_y
  _atom_site_fract_z
  _atom_site_occupancy
  H   H1        1.0  0.6141960071877669  0.18377986309660066  0.764661762721484  1.0000
  H   H2        1.0  0.3858039929746683  0.6837798628019397  0.7353382371818292  1.0000
  H   H3        1.0  0.3858039928706832  0.8162201374153085  0.23533823682980884  1.0000
  H   H4        1.0  0.6141960070837819  0.3162201377099695  0.2646617623694637  1.0000
  H   H5        1.0  0.46565793373553127  0.005110641382656084  0.7890927690153392  1.0000
  H   H6        1.0  0.534342066426904  0.5051106410879952  0.7109072308879741  1.0000
  H   H7        1.0  0.5343420663229189  0.9948893591292532  0.2109072305359537  1.0000
  H   H8        1.0  0.4656579339823796  0.494889359423914  0.2890927696161427  1.0000
  H   H9        1.0  0.278199637640405  0.9428086300544429  0.5972603380241757  1.0000
  H   H10       1.0  0.7218003616834453  0.4428086303491039  0.9027396618790415  1.0000
  H   H11       1.0  0.7218003615794601  0.05719137045746624  0.402739661527021  1.0000
  H   H12       1.0  0.2781996378872534  0.5571913701628053  0.09726033862497928  1.0000
  H   H13       1.0  0.2492394010840647  0.062479164672224655  0.3874618756768525  1.0000
  H   H14       1.0  0.7507605983826489  0.5624791654787948  0.11253812447514779  1.0000
  H   H15       1.0  0.7507605981358005  0.9375208347384535  0.6125381238743443  1.0000
  H   H16       1.0  0.24923940118804985  0.43752083503311445  0.8874618760288729  1.0000
  H   H17       1.0  0.40664649767950367  0.24090548125218478  0.38064024674268643  1.0000
  H   H18       1.0  0.5933535026257948  0.7409054809575238  0.11935975340941005  1.0000
  H   H19       1.0  0.5933535027297798  0.7590945192597244  0.6193597537614304  1.0000
  H   H20       1.0  0.4066464974326553  0.2590945195543853  0.8806402461418829  1.0000
  C   C1        1.0  0.1768142930672774  0.46404831424663434  0.4585896420111759  1.0000
  C   C2        1.0  0.823185707238021  0.9640483139519734  0.04141035814092054  1.0000
  C   C3        1.0  0.8231857069911728  0.5359516862652749  0.541410357540117  1.0000
  C   C4        1.0  0.17681429317126252  0.03595168655993581  0.9585896423631962  1.0000
  C   C5        1.0  0.20212880006466166  0.37224245783258136  0.5636307458026637  1.0000
  C   C6        1.0  0.7978712000977736  0.8722424575379205  0.9363692541006496  1.0000
  C   C7        1.0  0.7978711999937885  0.6277575415780969  0.4363692537486293  1.0000
  C   C8        1.0  0.20212880031151004  0.12775754187275778  0.06363074640346715  1.0000
  C   C9        1.0  0.11714309782683147  0.273333088684282  0.5738874809393215  1.0000
  C   C10       1.0  0.8828569023356038  0.7733330894908521  0.9261125189639918  1.0000
  C   C11       1.0  0.8828569022316186  0.7266669107263962  0.42611251861197136  1.0000
  C   C12       1.0  0.11714309807367988  0.2266669110210571  0.07388748154012507  1.0000
  C   C13       1.0  0.0020395176193113815  0.2657216133188214  0.47645863168103747  1.0000
  C   C14       1.0  0.9979604826859871  0.7657216141253915  0.02354136847105897  1.0000
  C   C15       1.0  0.9979604824391388  0.7342783860918568  0.5235413678702555  1.0000
  C   C16       1.0  0.0020395177232964755  0.2342783863865177  0.9764586320330579  1.0000
  C   C17       1.0  0.9729275280775255  0.35951547804826994  0.37169594729007543  1.0000
  C   C18       1.0  0.027072472227773023  0.859515477753609  0.12830405286202098  1.0000
  C   C19       1.0  0.027072472331758107  0.6404845224636393  0.6283040532140414  1.0000
  C   C20       1.0  0.9729275278306772  0.14048452275830015  0.871695946689272  1.0000
  C   C21       1.0  0.06015752938562886  0.45697136320464693  0.364170781238975  1.0000
  C   C22       1.0  0.9398424709196695  0.956971364011217  0.1358292189131215  1.0000
  C   C23       1.0  0.9398424706728212  0.5430286362060313  0.635829218312318  1.0000
  C   C24       1.0  0.060157529489613976  0.043028636500692205  0.8641707815909954  1.0000
  C   C25       1.0  0.5317265779929181  0.15425179033894743  0.6833945301890012  1.0000
  C   C26       1.0  0.4682734225203507  0.6542517900442865  0.8166054706671361  1.0000
  C   C27       1.0  0.46827342241636555  0.8457482101729618  0.3166054703151156  1.0000
  C   C28       1.0  0.5317265778889328  0.3457482104676227  0.18339452983698082  1.0000
  C   C29       1.0  0.44864937797550847  0.054447593898822526  0.6965829021922854  1.0000
  C   C30       1.0  0.5513506221869268  0.5544475936041616  0.803417097711028  1.0000
  C   C31       1.0  0.5513506220829416  0.9455524066130866  0.3034170973590077  1.0000
  C   C32       1.0  0.4486493782223568  0.4455524069077476  0.19658290279308882  1.0000
  C   C33       1.0  0.34500630685861605  0.02002604141488829  0.5896836912536666  1.0000
  C   C34       1.0  0.6549936924652343  0.5200260411202274  0.9103163086495506  1.0000
  C   C35       1.0  0.6549936927120827  0.9799739579957899  0.41031630925035417  1.0000
  C   C36       1.0  0.34500630675463084  0.4799739582904508  0.08968369090164617  1.0000
  C   C37       1.0  0.32839022585218014  0.0866926271384944  0.4735233180108251  1.0000
  C   C38       1.0  0.6716097744531184  0.5866926268438335  0.026476682141271437  1.0000
  C   C39       1.0  0.6716097745571035  0.9133073733734147  0.5264766824932918  1.0000
  C   C40       1.0  0.3283902256053317  0.41330737366807574  0.9735233174100214  1.0000
  C   C41       1.0  0.41594189007975063  0.18572019031119083  0.4690596406939557  1.0000
  C   C42       1.0  0.584058110225548  0.68572019001653  0.030940359458140762  1.0000
  C   C43       1.0  0.5840581099786996  0.8142798090994874  0.5309403588573373  1.0000
  C   C44       1.0  0.4159418901837357  0.3142798093941483  0.9690596410459761  1.0000
  N   N1        1.0  0.5156263389966173  0.21884576126894228  0.5720618708407452  1.0000
  N   N2        1.0  0.48437366116581787  0.7188457609742814  0.927938129062568  1.0000
  N   N3        1.0  0.48437366057408143  0.7811542392429669  0.42793812966327544  1.0000
  N   N4        1.0  0.5156263388926322  0.2811542384363968  0.0720618704887249  1.0000
  F   F1        1.0  0.3124658699580191  0.3766541247595046  0.6613127815099916  1.0000
  F   F2        1.0  0.6875341293658312  0.8766541244648437  0.8386872183932256  1.0000
  F   F3        1.0  0.6875341296126796  0.6233458746511736  0.338687218994029  1.0000
  F   F4        1.0  0.312465869854034  0.12334587494583449  0.16131278115797132  1.0000
  F   F5        1.0  0.14547618127229908  0.1858924228430853  0.6773829316795015  1.0000
  F   F6        1.0  0.8545238188901361  0.6858924225484243  0.8226170682238118  1.0000
  F   F7        1.0  0.8545238187861509  0.8141075765675929  0.3226170678717914  1.0000
  F   F8        1.0  0.14547618151914748  0.31410757686225377  0.17738293228030502  1.0000
  F   F9        1.0  0.9184974799846817  0.170817229784587  0.4849081387026697  1.0000
  F   F10       1.0  0.08150251948203198  0.670817230591157  0.015091861449330633  1.0000
  F   F11       1.0  0.08150251923518363  0.8291827696260912  0.5150918608485271  1.0000
  F   F12       1.0  0.9184974800886667  0.32918276992075207  0.98490813905469  1.0000
  F   F13       1.0  0.026624387274018477  0.5475511486427396  0.2615008224849207  1.0000
  F   F14       1.0  0.9733756126804466  0.04755114893740048  0.2384991767143519  1.0000
  F   F15       1.0  0.9733756127844317  0.4524488518691696  0.7384991770663724  1.0000
  F   F16       1.0  0.026624387378003583  0.9524488515745088  0.7615008228369411  1.0000
  F   F17       1.0  0.8597896403260867  0.35699611254982144  0.2797057648878139  1.0000
  F   F18       1.0  0.14021035914062688  0.8569961122551606  0.22029423526418646  1.0000
  F   F19       1.0  0.14021035924461195  0.6430038879620879  0.7202942356162068  1.0000
  F   F20       1.0  0.8597896400792384  0.1430038882567487  0.7797057642870104  1.0000
  I   I1        1.0  0.3137482180411974  0.6058750438045112  0.443813364574738  1.0000
  I   I2        1.0  0.686251782264101  0.10587504409917202  0.056186635577358396  1.0000
  I   I3        1.0  0.6862517823680861  0.3941249567073981  0.5561866359293788  1.0000
  I   I4        1.0  0.313748217794349  0.8941249564127371  0.9438133639739346  1.0000
