data_image0
_chemical_formula_structural       H14C24N8O14I6
_chemical_formula_sum              "H14 C24 N8 O14 I6"
_cell_length_a       8.261590742374532
_cell_length_b       10.410053729248391
_cell_length_c       12.741285694170248
_cell_angle_alpha    66.85255439676247
_cell_angle_beta     74.369405404107
_cell_angle_gamma    78.10787264377377

_space_group_name_H-M_alt    "P 1"
_space_group_IT_number       1

loop_
  _space_group_symop_operation_xyz
  'x, y, z'

loop_
  _atom_site_type_symbol
  _atom_site_label
  _atom_site_symmetry_multiplicity
  _atom_site_fract_x
  _atom_site_fract_y
  _atom_site_fract_z
  _atom_site_occupancy
  H   H1        1.0  0.9774745173754037  0.7764102347609028  0.7192338022198929  1.0000
  H   H2        1.0  0.02252548250679376  0.22358976592049895  0.2807661977414285  1.0000
  H   H3        1.0  0.9049974339155037  0.6494303365179259  0.9357701144116614  1.0000
  H   H4        1.0  0.0950025662164034  0.35056966318145827  0.06422988555046348  1.0000
  H   H5        1.0  0.18008802279378244  0.933879664866545  0.9731031552368302  1.0000
  H   H6        1.0  0.8199119773381245  0.0661203348328394  0.02689684472529477  1.0000
  H   H7        1.0  0.24965782078282284  0.0440367848473892  0.7550518625950753  1.0000
  H   H8        1.0  0.7503421790993746  0.9559632158340126  0.2449481373662461  1.0000
  H   H9        1.0  0.8555603570242407  0.7068650432405934  0.13729266769586473  1.0000
  H   H10       1.0  0.1444396431076662  0.29313495645879084  0.8627073322662603  1.0000
  H   H11       1.0  0.03783603274670235  0.7631133552910976  0.14879801351389468  1.0000
  H   H12       1.0  0.9621639673852047  0.2368866444082868  0.8512019864482302  1.0000
  H   H13       1.0  0.05026458778847202  0.5999178260486583  0.13199548248081275  1.0000
  H   H14       1.0  0.9497354123434352  0.40008217365072607  0.8680045174813121  1.0000
  C   C1        1.0  0.27209417169464956  0.5363918872724288  0.4601477267459878  1.0000
  C   C2        1.0  0.7279058284372572  0.4636081124269556  0.5398522732161372  1.0000
  C   C3        1.0  0.3084520440920779  0.4342453736986147  0.40924274563583246  1.0000
  C   C4        1.0  0.691547956039829  0.5657546260007696  0.5907572543262926  1.0000
  C   C5        1.0  0.3747219913091196  0.4797237370603525  0.2892609709920862  1.0000
  C   C6        1.0  0.6252780085730779  0.5202762636210493  0.7107390289692352  1.0000
  C   C7        1.0  0.4017271924465085  0.619303419351328  0.22128525509019675  1.0000
  C   C8        1.0  0.5982728076853985  0.38069658034805637  0.7787147448719282  1.0000
  C   C9        1.0  0.35863850303381634  0.7159144663493539  0.27817590964407957  1.0000
  C   C10       1.0  0.6413614968483813  0.28408553433204786  0.7218240903172418  1.0000
  C   C11       1.0  0.29536735631295724  0.6779553992340651  0.3982857727116898  1.0000
  C   C12       1.0  0.7046326438189499  0.3220446004653193  0.6017142272504351  1.0000
  C   C13       1.0  0.01920755210272683  0.8041178150179952  0.7807294620049898  1.0000
  C   C14       1.0  0.9807924480291803  0.19588218468138924  0.21927053795713514  1.0000
  C   C15       1.0  0.9810583720668787  0.7368455422285016  0.9004212144368524  1.0000
  C   C16       1.0  0.018941627815318836  0.26315445845290025  0.09957878552446901  1.0000
  C   C17       1.0  0.03552849107392782  0.7809366075711544  0.9748024224306282  1.0000
  C   C18       1.0  0.9644715090579791  0.21906339212823003  0.025197577531496762  1.0000
  C   C19       1.0  0.13232058844696998  0.8944225848946  0.9211020126260544  1.0000
  C   C20       1.0  0.867679411684937  0.10557741480478433  0.07889798733607065  1.0000
  C   C21       1.0  0.17203761892336325  0.9579687191190234  0.8010175563229653  1.0000
  C   C22       1.0  0.8279623812085437  0.042031280580360916  0.19898244363915973  1.0000
  C   C23       1.0  0.9927866644988385  0.7099282873343957  0.10471039480297789  1.0000
  C   C24       1.0  0.007213335633068511  0.29007171236498863  0.8952896051591469  1.0000
  N   N1        1.0  0.41903132848933156  0.37485617269116855  0.23121350543121272  1.0000
  N   N2        1.0  0.580968671392866  0.625143827990233  0.7687864945301087  1.0000
  N   N3        1.0  0.3820883109539986  0.8654630094501355  0.20750763433941408  1.0000
  N   N4        1.0  0.6179116891779085  0.1345369902492489  0.7924923656227107  1.0000
  N   N5        1.0  0.2045024066809676  0.49193687520123636  0.5879877775745082  1.0000
  N   N6        1.0  0.7954975929376314  0.5080631251044015  0.41201222325973386  1.0000
  N   N7        1.0  0.11491279858729962  0.9134114295316383  0.7320248451394562  1.0000
  N   N8        1.0  0.8850872012948979  0.08658857114976341  0.26797515482186524  1.0000
  O   O1        1.0  0.3073052038338516  0.35808105348371183  0.1907413282387424  1.0000
  O   O2        1.0  0.6926947962980553  0.6419189462156724  0.8092586717233825  1.0000
  O   O3        1.0  0.563233962228288  0.31273953008194194  0.22616295715841342  1.0000
  O   O4        1.0  0.43676603790361884  0.6872604696174424  0.7738370428037116  1.0000
  O   O5        1.0  0.2616648331272825  0.9399954938274558  0.16498981278699892  1.0000
  O   O6        1.0  0.7383351670046244  0.060004505871928404  0.8350101871751261  1.0000
  O   O7        1.0  0.5194747995258954  0.9041996501047772  0.19574959820004678  1.0000
  O   O8        1.0  0.4805252006060116  0.09580034959460733  0.8042504017620781  1.0000
  O   O9        1.0  0.049540949767587085  0.4974711176952737  0.6222333320151981  1.0000
  O   O10       1.0  0.9504590501146105  0.5025288829861282  0.37776666794612324  1.0000
  O   O11       1.0  0.30947585933702926  0.45255133684468346  0.6505326672537652  1.0000
  O   O12       1.0  0.6905241407948778  0.5474486628547007  0.34946733270835967  1.0000
  O   O13       1.0  0.15158204783510232  0.9765717106028468  0.6167636389250751  1.0000
  O   O14       1.0  0.8484179520470952  0.023428290078555198  0.38323636103624625  1.0000
  I   I1        1.0  0.24957929492872208  0.22611281932496297  0.5066571908288221  1.0000
  I   I2        1.0  0.7504207052031849  0.7738871803744215  0.4933428091333028  1.0000
  I   I3        1.0  0.5094037553214397  0.6791274813648218  0.04255628137867026  1.0000
  I   I4        1.0  0.4905962448104674  0.3208725183345625  0.9574437185834548  1.0000
  I   I5        1.0  0.2384764260612833  0.8222407066596217  0.48585410068732693  1.0000
  I   I6        1.0  0.7615235740706237  0.17775929303976284  0.5141458992747979  1.0000
