data_image0
_chemical_formula_structural       H16C32N10O12I6
_chemical_formula_sum              "H16 C32 N10 O12 I6"
_cell_length_a       9.461439999112383
_cell_length_b       10.114828793538507
_cell_length_c       11.040465203155653
_cell_angle_alpha    90.0
_cell_angle_beta     105.78432217221734
_cell_angle_gamma    90.0

_space_group_name_H-M_alt    "P 1"
_space_group_IT_number       1

loop_
  _space_group_symop_operation_xyz
  'x, y, z'

loop_
  _atom_site_type_symbol
  _atom_site_label
  _atom_site_symmetry_multiplicity
  _atom_site_fract_x
  _atom_site_fract_y
  _atom_site_fract_z
  _atom_site_occupancy
  H   H1        1.0  0.15799049963742104  0.6956859907006206  0.36372929813255395  1.0000
  H   H2        1.0  0.6579904991658105  0.30431400894954574  0.863729298828326  1.0000
  H   H3        1.0  0.030171449699663518  0.4831783918203394  0.3015840075892954  1.0000
  H   H4        1.0  0.5301714489305128  0.516821607829827  0.801584007343817  1.0000
  H   H5        1.0  0.619708589628723  0.6937038503787986  0.24971729722673053  1.0000
  H   H6        1.0  0.11970858934413352  0.30629614927136783  0.7497172970062991  1.0000
  H   H7        1.0  0.7645353209089744  0.8976996591183511  0.31195124706407096  1.0000
  H   H8        1.0  0.26453532062438473  0.10230034152046281  0.8119512468436394  1.0000
  H   H9        1.0  0.5284770841637849  0.5372305830298691  0.1248255904646447  1.0000
  H   H10       1.0  0.028477084176735636  0.46276941760894474  0.6248255911854639  1.0000
  H   H11       1.0  0.389723474781723  0.32624487545533437  0.08533758465226916  1.0000
  H   H12       1.0  0.8897234743101124  0.6737551241948321  0.5853375853480413  1.0000
  H   H13       1.0  0.7560661207731751  0.11080942078980063  0.27476477054373605  1.0000
  H   H14       1.0  0.25606612078612573  0.8891905788603657  0.7747647712645551  1.0000
  H   H15       1.0  0.908147845744328  0.31237753742489693  0.3269972182554033  1.0000
  H   H16       1.0  0.4081478454597384  0.6876224622252695  0.8269972180349717  1.0000
  C   C1        1.0  0.6570283273017798  0.08564817731303719  0.5661388347026621  1.0000
  C   C2        1.0  0.1570283267161229  0.9143518223371293  0.06613883400579823  1.0000
  C   C3        1.0  0.5196740810066445  0.024471523448634402  0.5274988236755912  1.0000
  C   C4        1.0  0.019674080718527713  0.9755284771901794  0.02749882391997785  1.0000
  C   C5        1.0  0.3871421119430136  0.09253680997526384  0.48210374022665065  1.0000
  C   C6        1.0  0.8871421122311304  0.9074631896749027  0.9821037399822641  1.0000
  C   C7        1.0  0.39758624076484783  0.22976307730335613  0.47201330754512777  1.0000
  C   C8        1.0  0.8975862413505047  0.7702369233354578  0.9720133082419916  1.0000
  C   C9        1.0  0.5298323641167761  0.29929178256915945  0.5134579498996792  1.0000
  C   C10       1.0  0.02983236382865946  0.700708217081007  0.013457950144065723  1.0000
  C   C11       1.0  0.6565769937162428  0.2239008070454671  0.5625864242886683  1.0000
  C   C12       1.0  0.15657699342812603  0.7760991926046993  0.06258642453305496  1.0000
  C   C13       1.0  0.03823861241602807  0.6913156666049485  0.33764896698213964  1.0000
  C   C14       1.0  0.5382386127041447  0.3086843340338654  0.8376489667377531  1.0000
  C   C15       1.0  0.9659413077883423  0.5719304941370362  0.3030022241831651  1.0000
  C   C16       1.0  0.46594130750375273  0.4280695065017777  0.8030022239627336  1.0000
  C   C17       1.0  0.8120882969688676  0.5688646132770646  0.2693137661579586  1.0000
  C   C18       1.0  0.3120882966842781  0.4311353863731019  0.7693137659375271  1.0000
  C   C19       1.0  0.7389374831910864  0.6889520961987671  0.27315997328510117  1.0000
  C   C20       1.0  0.2389374839637642  0.3110479034513994  0.7731599730657615  1.0000
  C   C21       1.0  0.820229501534891  0.8039823249598577  0.3082455589658994  1.0000
  C   C22       1.0  0.32022950125030153  0.19601767469030884  0.8082455587454679  1.0000
  C   C23       1.0  0.7302120312443272  0.44434345966103966  0.23323048776088834  1.0000
  C   C24       1.0  0.2302120309597377  0.5556565409777743  0.7332304875404568  1.0000
  C   C25       1.0  0.5829611362392328  0.4454185831477513  0.16165096714571928  1.0000
  C   C26       1.0  0.08296113595464323  0.5545814165024152  0.6616509669252877  1.0000
  C   C27       1.0  0.5054972220167886  0.3275183038309316  0.13823186961275796  1.0000
  C   C28       1.0  0.00549722173219908  0.6724816958192348  0.6382318693923266  1.0000
  C   C29       1.0  0.7085016170209522  0.20739191169899598  0.24377235397086292  1.0000
  C   C30       1.0  0.20850161673636264  0.7926080889398179  0.7437723537504314  1.0000
  C   C31       1.0  0.7941969859601852  0.3209471041243721  0.27208623441451496  1.0000
  C   C32       1.0  0.2941969867328631  0.6790528955257944  0.7720862341951752  1.0000
  N   N1        1.0  0.5140721239277178  0.8778908176550142  0.5353890081066729  1.0000
  N   N2        1.0  0.014072123639601083  0.12210918199515226  0.035389008351059625  1.0000
  N   N3        1.0  0.2620503168968986  0.3042339018101627  0.4114016983683556  1.0000
  N   N4        1.0  0.7620503164252881  0.6957660988286513  0.9114016990641277  1.0000
  N   N5        1.0  0.7979264064733852  0.2923866048913506  0.614162537664296  1.0000
  N   N6        1.0  0.2979264058877284  0.7076133947588158  0.11416253696743205  1.0000
  N   N7        1.0  0.96777339836314  0.8061332244406177  0.34008971553369244  1.0000
  N   N8        1.0  0.4677733980785505  0.19386677520954868  0.8400897153132608  1.0000
  N   N9        1.0  0.5658714608465072  0.2101025566895978  0.17970785216256926  1.0000
  N   N10       1.0  0.06587146085945782  0.7898974429605686  0.6797078528833883  1.0000
  O   O1        1.0  0.4889017174958344  0.8303816783696335  0.6300831915476618  1.0000
  O   O2        1.0  0.9889017177804239  0.16961832128053297  0.13008319176809327  1.0000
  O   O3        1.0  0.5355817054328244  0.8140709396149259  0.44616360651051545  1.0000
  O   O4        1.0  0.035581705148234846  0.18592906102388795  0.9461636062900841  1.0000
  O   O5        1.0  0.17575769648996992  0.32682826348101895  0.47512255818185334  1.0000
  O   O6        1.0  0.6757576967780866  0.6731717361691475  0.9751225579374667  1.0000
  O   O7        1.0  0.24504306700131798  0.3372051845483385  0.30070820750921945  1.0000
  O   O8        1.0  0.7450430662321673  0.6627948151018279  0.8007082072637411  1.0000
  O   O9        1.0  0.8895238912764928  0.28514629450203555  0.5530964626249405  1.0000
  O   O10       1.0  0.3895238920456435  0.7148537061367783  0.053096462870418935  1.0000
  O   O11       1.0  0.8159523741217751  0.34993739511054484  0.7159010916275916  1.0000
  O   O12       1.0  0.31595237489092576  0.6500626055282691  0.21590109187307002  1.0000
  I   I1        1.0  0.8545868282119596  0.9701929583097735  0.6248421174919252  1.0000
  I   I2        1.0  0.35458682762630267  0.02980704134039303  0.1248421167950613  1.0000
  I   I3        1.0  0.18386998072679772  0.9881099892056172  0.4232247312445237  1.0000
  I   I4        1.0  0.6838699810149145  0.011890011433196698  0.9232247310001371  1.0000
  I   I5        1.0  0.5361633364723857  0.5061514341469125  0.4989087265754671  1.0000
  I   I6        1.0  0.03616333618779612  0.4938485655032539  0.9989087263550356  1.0000
