data_image0
_chemical_formula_structural       H32C40N12O24S8I12
_chemical_formula_sum              "H32 C40 N12 O24 S8 I12"
_cell_length_a       24.04803070304115
_cell_length_b       9.890184500213163
_cell_length_c       8.137497573473908
_cell_angle_alpha    90.0
_cell_angle_beta     102.95833766437931
_cell_angle_gamma    90.0

_space_group_name_H-M_alt    "P 1"
_space_group_IT_number       1

loop_
  _space_group_symop_operation_xyz
  'x, y, z'

loop_
  _atom_site_type_symbol
  _atom_site_label
  _atom_site_symmetry_multiplicity
  _atom_site_fract_x
  _atom_site_fract_y
  _atom_site_fract_z
  _atom_site_occupancy
  H   H1        1.0  0.33803014105720597  0.23957676016548843  0.04050350919720972  1.0000
  H   H2        1.0  0.6619698592037078  0.23957676016548843  0.4594964912494322  1.0000
  H   H3        1.0  0.8380301409788846  0.739576760154712  0.040503508275826126  1.0000
  H   H4        1.0  0.16196985918640375  0.739576760154712  0.4594964909098236  1.0000
  H   H5        1.0  0.6619698590141654  0.7604232398129586  0.9594964910166778  1.0000
  H   H6        1.0  0.33803014086766364  0.7604232398129586  0.5405035089644554  1.0000
  H   H7        1.0  0.16196985909248685  0.2604232398237351  0.9594964919380614  1.0000
  H   H8        1.0  0.8380301408849677  0.2604232398237351  0.540503509304064  1.0000
  H   H9        1.0  0.3338155919469358  0.14160157375929802  0.2206916527727235  1.0000
  H   H10       1.0  0.6661844078025045  0.14160157375929802  0.2793083464127471  1.0000
  H   H11       1.0  0.8338155919642397  0.6416015737485216  0.22069165311233213  1.0000
  H   H12       1.0  0.16618440788082595  0.6416015737485216  0.2793083473341307  1.0000
  H   H13       1.0  0.6661844076129622  0.858398426219149  0.7793083461799927  1.0000
  H   H14       1.0  0.3338155922688669  0.858398426219149  0.7206916538011403  1.0000
  H   H15       1.0  0.1661844076912836  0.35839842622992557  0.7793083471013763  1.0000
  H   H16       1.0  0.8338155921905456  0.35839842622992557  0.7206916528797568  1.0000
  H   H17       1.0  0.20819103807429498  0.4875276886792231  0.0389555425139774  1.0000
  H   H18       1.0  0.7918089617707706  0.4875276886792231  0.46104445793248544  1.0000
  H   H19       1.0  0.708191038091599  0.9875276886684465  0.03895554285358601  1.0000
  H   H20       1.0  0.2918089617534667  0.9875276886684465  0.4610444575928768  1.0000
  H   H21       1.0  0.7918089619970764  0.512472311299224  0.9610444576999101  1.0000
  H   H22       1.0  0.20819103788475268  0.512472311299224  0.538955542281223  1.0000
  H   H23       1.0  0.2918089619797724  0.012472311310000473  0.9610444573603015  1.0000
  H   H24       1.0  0.7081910379020568  0.012472311310000473  0.5389555426208317  1.0000
  H   H25       1.0  0.2630222403491254  0.4462974275055097  0.9328536164012743  1.0000
  H   H26       1.0  0.7369777595327036  0.4462974275055097  0.5671463835798587  1.0000
  H   H27       1.0  0.7630222403664295  0.9462974274947333  0.932853616740883  1.0000
  H   H28       1.0  0.23697775951539962  0.9462974274947333  0.5671463832402501  1.0000
  H   H29       1.0  0.736977759722246  0.5537025724729374  0.06714638381261318  1.0000
  H   H30       1.0  0.2630222401228197  0.5537025724729374  0.43285361663384964  1.0000
  H   H31       1.0  0.23697775970494198  0.053702572483713795  0.06714638347300456  1.0000
  H   H32       1.0  0.7630222401401239  0.053702572483713795  0.43285361697345826  1.0000
  C   C1        1.0  0.447793208876596  0.6322742816238891  0.23063457054313302  1.0000
  C   C2        1.0  0.5522067913843178  0.6322742816238891  0.2693654299035089  1.0000
  C   C3        1.0  0.9477932088939001  0.1322742816346656  0.23063457088274164  1.0000
  C   C4        1.0  0.052206791367013734  0.1322742816346656  0.2693654295639003  1.0000
  C   C5        1.0  0.5522067911947754  0.367725718354558  0.7693654296707545  1.0000
  C   C6        1.0  0.44779320868705363  0.367725718354558  0.7306345703103786  1.0000
  C   C7        1.0  0.05220679117747141  0.8677257183437815  0.7693654293311459  1.0000
  C   C8        1.0  0.9477932087043577  0.8677257183437815  0.7306345706499873  1.0000
  C   C9        1.0  0.44930420101148527  0.7732639345439075  0.22751244341921745  1.0000
  C   C10       1.0  0.5506957991538031  0.7732639345439075  0.2724875557664323  1.0000
  C   C11       1.0  0.9493042010287893  0.27326393455468406  0.22751244375882604  1.0000
  C   C12       1.0  0.050695799232124486  0.27326393455468406  0.2724875566878159  1.0000
  C   C13       1.0  0.5506957990598862  0.2267360654345395  0.7724875567946702  1.0000
  C   C14       1.0  0.4493042008219429  0.2267360654345395  0.727512443186463  1.0000
  C   C15       1.0  0.05069579904258215  0.726736065423763  0.7724875564550615  1.0000
  C   C16       1.0  0.9493042008392469  0.726736065423763  0.7275124435260716  1.0000
  C   C17       1.0  0.49999999987472016  0.8475334499391127  0.2499999995927353  1.0000
  C   C18       1.0  0.9999999998920243  0.3475334499498891  0.24999999993234392  1.0000
  C   C19       1.0  0.5000000001966514  0.15246655003933446  0.7500000006211522  1.0000
  C   C20       1.0  1.1833001245520336e-10  0.6524665500285579  0.7499999996997687  1.0000
  C   C21       1.0  0.49999999987472016  0.5660058252583001  0.2499999995927353  1.0000
  C   C22       1.0  0.9999999998920243  0.06600582526907663  0.24999999993234392  1.0000
  C   C23       1.0  0.5000000001966514  0.4339941747201469  0.7500000006211522  1.0000
  C   C24       1.0  1.1833001245520336e-10  0.9339941747093703  0.7499999996997687  1.0000
  C   C25       1.0  0.30844181133991894  0.19427872654535283  0.1101883411836078  1.0000
  C   C26       1.0  0.6915581889209947  0.19427872654535283  0.3898116592630341  1.0000
  C   C27       1.0  0.8084418112615975  0.6942787265345763  0.1101883402622242  1.0000
  C   C28       1.0  0.19155818890369078  0.6942787265345763  0.3898116589234255  1.0000
  C   C29       1.0  0.6915581887314525  0.8057212734330942  0.8898116590302798  1.0000
  C   C30       1.0  0.3084418111503766  0.8057212734330942  0.6101883409508534  1.0000
  C   C31       1.0  0.19155818871414843  0.30572127344387073  0.8898116586906711  1.0000
  C   C32       1.0  0.8084418111676807  0.30572127344387073  0.6101883412904621  1.0000
  C   C33       1.0  0.23227991920338079  0.4036197615842215  0.00037244744162273657  1.0000
  C   C34       1.0  0.767720080641685  0.4036197615842215  0.4996275530048401  1.0000
  C   C35       1.0  0.7322799191250594  0.9036197615734451  0.0003724465202391351  1.0000
  C   C36       1.0  0.2677200806243809  0.9036197615734451  0.49962755266523146  1.0000
  C   C37       1.0  0.7677200804521426  0.5963802383942255  0.9996275527720857  1.0000
  C   C38       1.0  0.2322799194296865  0.5963802383942255  0.5003724472090475  1.0000
  C   C39       1.0  0.2677200804348385  0.09638023840500198  0.999627552432477  1.0000
  C   C40       1.0  0.7322799194469906  0.09638023840500198  0.5003724475486561  1.0000
  N   N1        1.0  0.39433338122655515  0.8472647582883205  0.1974331659401991  1.0000
  N   N2        1.0  0.6056666186185106  0.8472647582883205  0.3025668345062637  1.0000
  N   N3        1.0  0.8943333811482337  0.3472647582990971  0.1974331650188155  1.0000
  N   N4        1.0  0.10566661860120662  0.3472647582990971  0.3025668341666551  1.0000
  N   N5        1.0  0.6056666188448164  0.15273524169012645  0.8025668342736884  1.0000
  N   N6        1.0  0.39433338103701276  0.15273524169012645  0.6974331657074447  1.0000
  N   N7        1.0  0.10566661892313775  0.65273524167935  0.802566835195072  1.0000
  N   N8        1.0  0.8943333809586914  0.65273524167935  0.6974331647860611  1.0000
  N   N9        1.0  0.49999999987472016  0.41623662631483505  0.2499999995927353  1.0000
  N   N10       1.0  0.9999999998920243  0.9162366263040587  0.24999999993234392  1.0000
  N   N11       1.0  0.5000000001966514  0.583763373663612  0.7500000006211522  1.0000
  N   N12       1.0  1.1833001245520336e-10  0.08376337367438846  0.7499999996997687  1.0000
  O   O1        1.0  0.37944460005372077  0.8952821870824714  0.32089714859024976  1.0000
  O   O2        1.0  0.620555400207193  0.8952821870824714  0.1791028518563922  1.0000
  O   O3        1.0  0.8794445999753994  0.3952821870932479  0.3208971476688661  1.0000
  O   O4        1.0  0.12055540018988896  0.3952821870932479  0.17910285151678357  1.0000
  O   O5        1.0  0.6205554000176506  0.1047178128959756  0.6791028516236377  1.0000
  O   O6        1.0  0.3794445998641785  0.1047178128959756  0.8208971483574953  1.0000
  O   O7        1.0  0.12055540000034662  0.6047178128851991  0.6791028512840291  1.0000
  O   O8        1.0  0.8794445998814825  0.6047178128851991  0.820897148697104  1.0000
  O   O9        1.0  0.36758619134218123  0.8551737371348036  0.04920426374178636  1.0000
  O   O10       1.0  0.632413808407259  0.8551737371348036  0.45079573544368423  1.0000
  O   O11       1.0  0.8675861913594853  0.3551737371455801  0.049204264081394965  1.0000
  O   O12       1.0  0.13241380848558043  0.3551737371455801  0.4507957363650678  1.0000
  O   O13       1.0  0.6324138083133422  0.14482626284364344  0.9507957364719221  1.0000
  O   O14       1.0  0.367586191568487  0.14482626284364344  0.549204263509211  1.0000
  O   O15       1.0  0.1324138082960381  0.6448262628328669  0.9507957361323135  1.0000
  O   O16       1.0  0.867586191585791  0.6448262628328669  0.5492042638488197  1.0000
  O   O17       1.0  0.4876275352003418  0.35860459629681923  0.11185683123718873  1.0000
  O   O18       1.0  0.5123724649649466  0.35860459629681923  0.38814316794846104  1.0000
  O   O19       1.0  0.9876275352176458  0.8586045962860428  0.11185683157679734  1.0000
  O   O20       1.0  0.01237246504326796  0.8586045962860428  0.3881431688698446  1.0000
  O   O21       1.0  0.5123724648710296  0.6413954036816278  0.8881431689766988  1.0000
  O   O22       1.0  0.4876275350107995  0.6413954036816278  0.6118568310044343  1.0000
  O   O23       1.0  0.012372464853725612  0.1413954036924043  0.8881431686370902  1.0000
  O   O24       1.0  0.9876275350281034  0.1413954036924043  0.611856831344043  1.0000
  S   S1        1.0  0.27132214048117226  0.32786507571523177  0.19549212358722506  1.0000
  S   S2        1.0  0.7286778593638935  0.32786507571523177  0.30450787685923775  1.0000
  S   S3        1.0  0.7713221404028509  0.8278650757044552  0.19549212266584148  1.0000
  S   S4        1.0  0.22867785934658943  0.8278650757044552  0.30450787651962913  1.0000
  S   S5        1.0  0.7286778595901992  0.6721349242632153  0.8045078766266626  1.0000
  S   S6        1.0  0.27132214070747795  0.6721349242632153  0.6954921233546497  1.0000
  S   S7        1.0  0.2286778596685206  0.1721349242739918  0.8045078775480461  1.0000
  S   S8        1.0  0.7713221406291566  0.1721349242739918  0.6954921224332661  1.0000
  I   I1        1.0  0.37153830311361624  0.5201922117720973  0.22899912907290934  1.0000
  I   I2        1.0  0.6284616967314495  0.5201922117720973  0.27100087137355344  1.0000
  I   I3        1.0  0.8715383031309202  0.020192211782873795  0.22899912941251796  1.0000
  I   I4        1.0  0.12846169671414548  0.020192211782873795  0.2710008710339449  1.0000
  I   I5        1.0  0.6284616965419072  0.4798077882063498  0.7710008711407992  1.0000
  I   I6        1.0  0.3715383033399219  0.4798077882063498  0.728999128840334  1.0000
  I   I7        1.0  0.12846169652460315  0.9798077881955733  0.7710008708011906  1.0000
  I   I8        1.0  0.8715383033572259  0.9798077881955733  0.7289991291799426  1.0000
  I   I9        1.0  0.49999999987472016  0.059707284529148336  0.2499999995927353  1.0000
  I   I10       1.0  0.9999999998920243  0.5597072845183718  0.24999999993234392  1.0000
  I   I11       1.0  0.5000000001966514  0.9402927154492987  0.7500000006211522  1.0000
  I   I12       1.0  1.1833001245520336e-10  0.44029271546007526  0.7499999996997687  1.0000
