data_image0
_chemical_formula_structural       H36C44O6F14S36
_chemical_formula_sum              "H36 C44 O6 F14 S36"
_cell_length_a       9.121893820931152
_cell_length_b       11.39243762446974
_cell_length_c       17.459751235902385
_cell_angle_alpha    94.61909272589466
_cell_angle_beta     90.3059463398627
_cell_angle_gamma    102.90900293338454

_space_group_name_H-M_alt    "P 1"
_space_group_IT_number       1

loop_
  _space_group_symop_operation_xyz
  'x, y, z'

loop_
  _atom_site_type_symbol
  _atom_site_label
  _atom_site_symmetry_multiplicity
  _atom_site_fract_x
  _atom_site_fract_y
  _atom_site_fract_z
  _atom_site_occupancy
  H   H1        1.0  0.5685447960699661  0.357803154492095  0.9491695630514863  1.0000
  H   H2        1.0  0.4314552032867248  0.6421968456267044  0.05083043658747798  1.0000
  H   H3        1.0  0.5709069913341739  0.3804321818573058  0.05023209790011151  1.0000
  H   H4        1.0  0.42909300911129783  0.6195678182629215  0.9497679023188069  1.0000
  H   H5        1.0  0.5845516075656262  0.17476233511223563  0.19860773368323678  1.0000
  H   H6        1.0  0.4154483928874752  0.8252376650071351  0.8013922659629271  1.0000
  H   H7        1.0  0.4665711887749594  0.15775760015552256  0.2795057015582994  1.0000
  H   H8        1.0  0.533428810574102  0.8422423999641334  0.7204942986534194  1.0000
  H   H9        1.0  0.43274394110000364  0.9647880972764663  0.19169447392382763  1.0000
  H   H10       1.0  0.5672560593530978  0.03521190284290444  0.8083055257223363  1.0000
  H   H11       1.0  0.6249180582338261  0.9620068904109674  0.2095271993086609  1.0000
  H   H12       1.0  0.3750819422192753  0.03799310970840345  0.790472800337503  1.0000
  H   H13       1.0  0.8855623182191088  0.021203935502838046  0.8773972346002712  1.0000
  H   H14       1.0  0.11443768222636287  0.9787960646173892  0.1226027656186472  1.0000
  H   H15       1.0  0.07209575286596905  0.033638232906784304  0.9128315935027844  1.0000
  H   H16       1.0  0.9279042475795027  0.966361767213443  0.0871684067161341  1.0000
  H   H17       1.0  0.0842256163621476  0.8424130375676903  0.82806818312766  1.0000
  H   H18       1.0  0.9157743840909537  0.15758696255168053  0.17193181651850395  1.0000
  H   H19       1.0  0.9425456273358295  0.8151888738214425  0.8985653856465252  1.0000
  H   H20       1.0  0.057454373117272  0.1848111262979284  0.10143461399963868  1.0000
  H   H21       1.0  0.8950906253281297  0.5099694354236386  0.8754014722791198  1.0000
  H   H22       1.0  0.10490937402093158  0.4900305646960172  0.12459852793259912  1.0000
  H   H23       1.0  0.08821415104257176  0.5225991939643035  0.9008778014274924  1.0000
  H   H24       1.0  0.9117858494029  0.47740080615592373  0.09912219879142609  1.0000
  H   H25       1.0  0.09506285064432286  0.34410263931033547  0.8052843000055894  1.0000
  H   H26       1.0  0.9049371487123681  0.655897360808464  0.19471569963337498  1.0000
  H   H27       1.0  0.973059815057908  0.30620579700878414  0.8824989330411963  1.0000
  H   H28       1.0  0.02694018429115321  0.6937942031108718  0.11750106717052258  1.0000
  H   H29       1.0  0.6031350072679876  0.6616320268653141  0.18447192269817525  1.0000
  H   H30       1.0  0.39686499293315997  0.3383679723503399  0.8155280769003442  1.0000
  H   H31       1.0  0.45666516590875544  0.6526623265577731  0.25306756690901583  1.0000
  H   H32       1.0  0.5433348334479353  0.34733767356102624  0.7469324327299485  1.0000
  H   H33       1.0  0.448874091280552  0.45334894768593226  0.17945081324759296  1.0000
  H   H34       1.0  0.5511259091649197  0.546651052434295  0.8205491869713256  1.0000
  H   H35       1.0  0.6366233838226666  0.45691086208241766  0.21273430848577224  1.0000
  H   H36       1.0  0.36337661662280496  0.5430891380378097  0.7872656917331462  1.0000
  C   C1        1.0  0.5455731891914327  0.3110793894159262  0.001768172067972291  1.0000
  C   C2        1.0  0.4544268112540389  0.6889206107043012  0.9982318281509464  1.0000
  C   C3        1.0  0.38312935977466617  0.24511821090754196  0.0014017851435952926  1.0000
  C   C4        1.0  0.616870639574395  0.7548817892121139  0.9985982150681235  1.0000
  C   C5        1.0  0.7666117153551608  0.0009863072821988345  0.5074735417060884  1.0000
  C   C6        1.0  0.2333882848459869  0.9990136919334551  0.4925264578924311  1.0000
  C   C7        1.0  0.8267108292190505  0.9829778840704403  0.576619061582405  1.0000
  C   C8        1.0  0.17328917123405094  0.01702211604893058  0.42338093806375904  1.0000
  C   C9        1.0  0.70595341673129  0.08575680013037622  0.38099956936912904  1.0000
  C   C10       1.0  0.29404658372181147  0.9142431999889946  0.6190004302770348  1.0000
  C   C11       1.0  0.6053327949556022  0.9774902494274522  0.3826107741531136  1.0000
  C   C12       1.0  0.3946672054898695  0.022509750692775166  0.6173892260658048  1.0000
  C   C13       1.0  0.9635247752375485  0.009530443720448619  0.7091647699096414  1.0000
  C   C14       1.0  0.0364752252079232  0.9904695563997787  0.29083523030927716  1.0000
  C   C15       1.0  0.8680287281689163  0.8979864250342897  0.7061160789060118  1.0000
  C   C16       1.0  0.1319712709358209  0.10201357418079293  0.2938839206853081  1.0000
  C   C17       1.0  0.56112474682157  0.12865240058834143  0.2514722733439022  1.0000
  C   C18       1.0  0.43887525363153146  0.8713475995310294  0.7485277263022617  1.0000
  C   C19       1.0  0.5272595951318907  0.9925307112641198  0.23325168729771195  1.0000
  C   C20       1.0  0.4727404039652169  0.007469287951819283  0.7667483128663625  1.0000
  C   C21       1.0  0.9937938650418986  0.9984766422086427  0.864046043118061  1.0000
  C   C22       1.0  0.006206134307162531  0.001523357911013243  0.1359539570936579  1.0000
  C   C23       1.0  0.978077462918935  0.863315102730536  0.8472889114541549  1.0000
  C   C24       1.0  0.02192253752653659  0.13668489738969128  0.15271108876476355  1.0000
  C   C25       1.0  0.8124037999494256  0.48303132664582227  0.5709221378526863  1.0000
  C   C26       1.0  0.18759619939963557  0.5169686734738336  0.42907786235903256  1.0000
  C   C27       1.0  0.7526115411506161  0.5005594220812338  0.5015505399740771  1.0000
  C   C28       1.0  0.2473884593024853  0.4994405780381369  0.49844945967208676  1.0000
  C   C29       1.0  0.952109792532833  0.5097869914210765  0.70256306062562  1.0000
  C   C30       1.0  0.047890207920268525  0.4902130086982944  0.2974369390205439  1.0000
  C   C31       1.0  0.859158985265054  0.3969014025187694  0.6989774936302319  1.0000
  C   C32       1.0  0.14084101518041775  0.603098597601458  0.3010225065886867  1.0000
  C   C33       1.0  0.6877844578577297  0.5881840596233877  0.37695821863486684  1.0000
  C   C34       1.0  0.3122155425877421  0.4118159404968396  0.6230417815840515  1.0000
  C   C35       1.0  0.5891951999925106  0.47878392535034425  0.37791507455104895  1.0000
  C   C36       1.0  0.4108048004529612  0.5212160747698832  0.6220849256678695  1.0000
  C   C37       1.0  0.0019790222380744404  0.49134541189885866  0.85530531320475  1.0000
  C   C38       1.0  0.9980209771109868  0.5086545882207972  0.14469468700696891  1.0000
  C   C39       1.0  0.9917323973186721  0.35876081612171734  0.8321722088978631  1.0000
  C   C40       1.0  0.008267603134429338  0.6412391839976535  0.1678277907483007  1.0000
  C   C41       1.0  0.5599171826590819  0.6231402125501689  0.23784554375121256  1.0000
  C   C42       1.0  0.44008281779401964  0.37685978756920185  0.7621544558949513  1.0000
  C   C43       1.0  0.5324676435002955  0.48650134437146647  0.22636470500886058  1.0000
  C   C44       1.0  0.4675323569451762  0.5134986557487609  0.7736352952100578  1.0000
  O   O1        1.0  0.3078739911542545  0.4191215910557741  0.9292248731935461  1.0000
  O   O2        1.0  0.6921260090392636  0.5808784081607364  0.07077512697772793  1.0000
  O   O3        1.0  0.10999601353421667  0.2808619432991817  0.9943214229164579  1.0000
  O   O4        1.0  0.8900039858224743  0.7191380568196176  0.005678576722506399  1.0000
  O   O5        1.0  0.3015897421304435  0.4330418697415846  0.07069929330651951  1.0000
  O   O6        1.0  0.6984102583150283  0.5669581303786428  0.9293007069123991  1.0000
  F   F1        1.0  0.8212744438446842  0.14793558861885256  0.007565863681303244  1.0000
  F   F2        1.0  0.1787255555120067  0.8520644114999467  0.992434135957661  1.0000
  F   F3        1.0  0.8162722073527617  0.33928683356719214  0.9861784043254009  1.0000
  F   F4        1.0  0.1837277917443458  0.6607131656487469  0.013821595838673371  1.0000
  F   F5        1.0  0.7243299087578122  0.2604515791380763  0.09823276863008991  1.0000
  F   F6        1.0  0.2756700916876595  0.739548420982151  0.9017672315888285  1.0000
  F   F7        1.0  0.5749806412352703  0.09989211769954374  0.02772651700904502  1.0000
  F   F8        1.0  0.4250193592102014  0.9001078824206835  0.9722734832098734  1.0000
  F   F9        1.0  0.665040705307973  0.17660366324342044  0.9144304249130787  1.0000
  F   F10       1.0  0.3349592951374987  0.8233963368768069  0.08556957530583971  1.0000
  F   F11       1.0  0.34545567516024694  0.16128548462464334  0.9385215533669624  1.0000
  F   F12       1.0  0.6545443252928546  0.8387145154947274  0.06147844627920148  1.0000
  F   F13       1.0  0.344603286012214  0.18401240365814558  0.06596846071209335  1.0000
  F   F14       1.0  0.6553967144408874  0.8159875964612253  0.9340315389340705  1.0000
  S   S1        1.0  0.6895826613678866  0.22164396195601338  0.00595589841630551  1.0000
  S   S2        1.0  0.3104173390775851  0.7783560381642141  0.9940441018026128  1.0000
  S   S3        1.0  0.26135119530472384  0.3573709099335951  0.9984673186479611  1.0000
  S   S4        1.0  0.7386488051483776  0.6426290901857757  0.001532680998202843  1.0000
  S   S5        1.0  0.831709131538889  0.13016039235258936  0.45941085230134  1.0000
  S   S6        1.0  0.16829086890658282  0.8698396077676381  0.5405891479175785  1.0000
  S   S7        1.0  0.6202173124865049  0.8938958016210848  0.4607838144268652  1.0000
  S   S8        1.0  0.37978268795896675  0.10610419849914249  0.5392161857920533  1.0000
  S   S9        1.0  0.9659317441226847  0.0903951868708801  0.6277474331779799  1.0000
  S   S10       1.0  0.03406825633041675  0.9096048132484907  0.37225256646818405  1.0000
  S   S11       1.0  0.765075788050299  0.848990908354282  0.6200099493642652  1.0000
  S   S12       1.0  0.2349242110468085  0.15100909086165695  0.3799900507998092  1.0000
  S   S13       1.0  0.7296758789128456  0.18717778630665127  0.31045624869546784  1.0000
  S   S14       1.0  0.2703241204438453  0.8128222138121479  0.6895437509434964  1.0000
  S   S15       1.0  0.462589316134022  0.9105390623990589  0.31595685154461506  1.0000
  S   S16       1.0  0.5374106843190796  0.08946093772031186  0.684043148101549  1.0000
  S   S17       1.0  0.07942147332743463  0.08381255118130644  0.7861653775798321  1.0000
  S   S18       1.0  0.9205785271180371  0.9161874489389208  0.21383462263908634  1.0000
  S   S19       1.0  0.8327224284630745  0.795584361144619  0.7760992610938502  1.0000
  S   S20       1.0  0.16727757198239723  0.20441563897560835  0.22390073912506822  1.0000
  S   S21       1.0  0.9507081500759038  0.591267834380749  0.6219025759263006  1.0000
  S   S22       1.0  0.04929185036956794  0.40873216573947824  0.3780974242926179  1.0000
  S   S23       1.0  0.754566164345451  0.3482461913618364  0.6135736225851852  1.0000
  S   S24       1.0  0.24543383500361016  0.6517538087578195  0.38642637762653365  1.0000
  S   S25       1.0  0.8203885954220201  0.628506408789841  0.45282048889349874  1.0000
  S   S26       1.0  0.17961140503108136  0.37149359132952997  0.5471795107526652  1.0000
  S   S27       1.0  0.6094246874450692  0.39240293627316425  0.4538522018322492  1.0000
  S   S28       1.0  0.39057531300803233  0.6075970638462065  0.5461477978139146  1.0000
  S   S29       1.0  0.06971453876496449  0.5849779983618125  0.7783062827164355  1.0000
  S   S30       1.0  0.9302854616805073  0.41502200175841475  0.22169371750248296  1.0000
  S   S31       1.0  0.8345647572857314  0.2923387305763611  0.7676559224468882  1.0000
  S   S32       1.0  0.16543524315974037  0.7076612695438663  0.23234407777203042  1.0000
  S   S33       1.0  0.7053387280708664  0.6936016700667154  0.30921114954582074  1.0000
  S   S34       1.0  0.2946612723746053  0.30639833005351197  0.6907888506730977  1.0000
  S   S35       1.0  0.4496322540004426  0.41329830855009203  0.3093840120688695  1.0000
  S   S36       1.0  0.5503677453486187  0.5867016915695639  0.6906159881428494  1.0000
