data_image0
_chemical_formula_structural       H30C40N2O4Cl2
_chemical_formula_sum              "H30 C40 N2 O4 Cl2"
_cell_length_a       7.143444190062415
_cell_length_b       9.293649284113888
_cell_length_c       12.971678294933877
_cell_angle_alpha    78.12860474967579
_cell_angle_beta     84.6058887420128
_cell_angle_gamma    74.3957515387378

_space_group_name_H-M_alt    "P 1"
_space_group_IT_number       1

loop_
  _space_group_symop_operation_xyz
  'x, y, z'

loop_
  _atom_site_type_symbol
  _atom_site_label
  _atom_site_symmetry_multiplicity
  _atom_site_fract_x
  _atom_site_fract_y
  _atom_site_fract_z
  _atom_site_occupancy
  H   H1        1.0  0.7082742385140107  0.15813371299133455  0.2624095424801862  1.0000
  H   H2        1.0  0.291725762076555  0.8418662869059539  0.7375904571979812  1.0000
  H   H3        1.0  0.44003377512238656  0.36936361793269423  0.18377727378263878  1.0000
  H   H4        1.0  0.5599662254139229  0.6306363817480269  0.8162227266839454  1.0000
  H   H5        1.0  0.5078494434502503  0.6104528014687578  0.08102314674826915  1.0000
  H   H6        1.0  0.49215055574038374  0.3895471984274385  0.9189768529324548  1.0000
  H   H7        1.0  0.849011620282684  0.633583678519756  0.05593808264249947  1.0000
  H   H8        1.0  0.15098838030788186  0.3664163213775325  0.9440619170356679  1.0000
  H   H9        1.0  0.11901957606779495  0.41992386758146555  0.13457196553028244  1.0000
  H   H10       1.0  0.880980423122839  0.5800761323147309  0.8654280341504413  1.0000
  H   H11       1.0  0.29467153847722916  0.13149326158960342  0.05821702945705803  1.0000
  H   H12       1.0  0.7053284620590804  0.8685067380911177  0.941782971009526  1.0000
  H   H13       1.0  0.33738158674046864  0.9394241891196493  0.9434783101824844  1.0000
  H   H14       1.0  0.6626184124501653  0.060575810776547036  0.056521689498239505  1.0000
  H   H15       1.0  0.2028648748992575  0.714015205272984  0.0031448896447464317  1.0000
  H   H16       1.0  0.7971351238455308  0.28598479552333705  0.9968551108261803  1.0000
  H   H17       1.0  0.030475134214876732  0.67952142047859  0.1796581623173596  1.0000
  H   H18       1.0  0.969524866375689  0.3204785794186987  0.8203418373608079  1.0000
  H   H19       1.0  0.9803285704772684  0.874940060256112  0.2903329390198638  1.0000
  H   H20       1.0  0.019671430059041053  0.1250599394246091  0.7096670614467203  1.0000
  H   H21       1.0  0.38025521195083883  0.21970858712666347  0.7549243092688498  1.0000
  H   H22       1.0  0.6197447886397269  0.780291412770625  0.24507569040931768  1.0000
  H   H23       1.0  0.25981214291262167  0.4948110304492195  0.6784196581361891  1.0000
  H   H24       1.0  0.740187857623688  0.5051889692315016  0.32158034233039506  1.0000
  H   H25       1.0  0.31352524967231227  0.37644013136390025  0.36910269960774544  1.0000
  H   H26       1.0  0.6864747494640656  0.6235598683157286  0.6308973008613953  1.0000
  H   H27       1.0  0.3742969544106579  0.10978332095161591  0.2768435425683506  1.0000
  H   H28       1.0  0.6257030447257199  0.8902166787280131  0.72315645790079  1.0000
  H   H29       1.0  0.4353033816938551  0.1210553575093337  0.4487416285288036  1.0000
  H   H30       1.0  0.5646966171051893  0.8789446435035548  0.5512583711537064  1.0000
  C   C1        1.0  0.739661720330466  0.262413673628858  0.21707354897796177  1.0000
  C   C2        1.0  0.26033828026009975  0.7375863262684307  0.7829264507002057  1.0000
  C   C3        1.0  0.5880420470394733  0.3825385156585055  0.17310686038652995  1.0000
  C   C4        1.0  0.4119579534968363  0.6174614840222157  0.8268931400800541  1.0000
  C   C5        1.0  0.6264468240808866  0.5166141202136679  0.11493145535612787  1.0000
  C   C6        1.0  0.3735531765096791  0.4833858796836205  0.8850685443220396  1.0000
  C   C7        1.0  0.8174122455999911  0.5297056221229252  0.10131697634215134  1.0000
  C   C8        1.0  0.1825877549905745  0.47029437777436345  0.898683023336016  1.0000
  C   C9        1.0  0.9698772143462605  0.4098562131359529  0.14530911420279916  1.0000
  C   C10       1.0  0.030122784398527794  0.5901437876603682  0.8546908862681275  1.0000
  C   C11       1.0  0.1316952161303497  0.016649117735070388  0.18053345900126141  1.0000
  C   C12       1.0  0.8683047844059598  0.9833508819456507  0.8194665414653227  1.0000
  C   C13       1.0  0.23442161769931086  0.033246630724911894  0.08333601272249277  1.0000
  C   C14       1.0  0.7655783810997336  0.9667533702879767  0.9166639869600172  1.0000
  C   C15       1.0  0.25975822326129444  0.9246740013086913  0.01984399182687051  1.0000
  C   C16       1.0  0.7402417772750152  0.07532599837202977  0.9801560086397136  1.0000
  C   C17       1.0  0.18457958590072693  0.7978234633806378  0.053402403672218476  1.0000
  C   C18       1.0  0.8154204146898388  0.20217653651665055  0.946597596005949  1.0000
  C   C19       1.0  0.08607523953349126  0.7794804167482233  0.15133282496144557  1.0000
  C   C20       1.0  0.9139247596571428  0.22051958314797296  0.8486671747192783  1.0000
  C   C21       1.0  0.05816025908511311  0.8891010726099071  0.21415977292934302  1.0000
  C   C22       1.0  0.9418397401055211  0.11089892728628911  0.7858402267513809  1.0000
  C   C23       1.0  0.4104072075912597  0.14640389608631385  0.6047997626415001  1.0000
  C   C24       1.0  0.5895927929993061  0.8535961038109745  0.3952002370366674  1.0000
  C   C25       1.0  0.36178327400356675  0.25809327887606437  0.6704729770252261  1.0000
  C   C26       1.0  0.6382167265327428  0.7419067208046568  0.32952702344135787  1.0000
  C   C27       1.0  0.2954116633135876  0.4102593305272297  0.6277511285440887  1.0000
  C   C28       1.0  0.7045883358227903  0.5897406691523992  0.372248871925052  1.0000
  C   C29       1.0  0.2747416154690299  0.45738293243654743  0.5177851633469436  1.0000
  C   C30       1.0  0.7252583851215358  0.5426170674607409  0.4822148363312238  1.0000
  C   C31       1.0  0.3244902810614464  0.34991335983809857  0.4544253402124704  1.0000
  C   C32       1.0  0.6755097195291193  0.6500866400591899  0.545574659465697  1.0000
  C   C33       1.0  0.0997042109325555  0.14122293092546406  0.24717150678125124  1.0000
  C   C34       1.0  0.9002957892121646  0.8587770698719491  0.752828493687119  1.0000
  C   C35       1.0  0.9316623338040384  0.27563579530889054  0.20307274108499998  1.0000
  C   C36       1.0  0.06833766678652721  0.7243642045883979  0.7969272585931675  1.0000
  C   C37       1.0  0.01956114460423549  0.02828302276436493  0.4490542868856025  1.0000
  C   C38       1.0  0.9804388545863986  0.9717169771318315  0.5509457127951215  1.0000
  C   C39       1.0  0.05301720879801185  0.08107734877096712  0.3571057125988015  1.0000
  C   C40       1.0  0.946982790338366  0.9189226509086619  0.6428942878703392  1.0000
  N   N1        1.0  0.3899503066746207  0.20125774167308255  0.4982825108309945  1.0000
  N   N2        1.0  0.6100496935243553  0.798742259340898  0.5017174888489591  1.0000
  O   O1        1.0  0.4686958764603589  0.0029188930869795252  0.6366176010001305  1.0000
  O   O2        1.0  0.5313041236843612  0.9970811077104337  0.36338239946823964  1.0000
  O   O3        1.0  0.27002284731456194  0.19612864671005964  0.24155957762014918  1.0000
  O   O4        1.0  0.7299771518760719  0.8038713531861368  0.7584404220605747  1.0000
  Cl  Cl1       1.0  0.1913733946115845  0.6466366502852379  0.4621688190353743  1.0000
  Cl  Cl2       1.0  0.8086266045790494  0.35336334961095844  0.5378311806453496  1.0000
