data_image0
_chemical_formula_structural       H70C76N20O6F18S6
_chemical_formula_sum              "H70 C76 N20 O6 F18 S6"
_cell_length_a       9.85640289046683
_cell_length_b       11.630658280722917
_cell_length_c       18.60871568614923
_cell_angle_alpha    81.62651401855678
_cell_angle_beta     89.83123982170854
_cell_angle_gamma    71.86802500608495

_space_group_name_H-M_alt    "P 1"
_space_group_IT_number       1

loop_
  _space_group_symop_operation_xyz
  'x, y, z'

loop_
  _atom_site_type_symbol
  _atom_site_label
  _atom_site_symmetry_multiplicity
  _atom_site_fract_x
  _atom_site_fract_y
  _atom_site_fract_z
  _atom_site_occupancy
  H   H1        1.0  0.22966448953997717  0.535734681071187  0.4303507573463051  1.0000
  H   H2        1.0  0.7703355106714026  0.4642653189459616  0.5696492421560932  1.0000
  H   H3        1.0  0.12292033358718195  0.43973736478157216  0.41987201995026696  1.0000
  H   H4        1.0  0.8770796666265663  0.5602626352360563  0.580127980089465  1.0000
  H   H5        1.0  0.0493429192670093  0.20799830283445847  0.6645728274741556  1.0000
  H   H6        1.0  0.950657080946739  0.7920016971831699  0.33542717256557636  1.0000
  H   H7        1.0  0.13276578242974987  0.1733562032639581  0.7949683114126032  1.0000
  H   H8        1.0  0.8672342177839982  0.8266437967536703  0.20503168862712876  1.0000
  H   H9        1.0  0.41491401961746144  0.38849286220168594  0.7431045614506069  1.0000
  H   H10       1.0  0.5850859805962868  0.6115071378159426  0.25689543858912495  1.0000
  H   H11       1.0  0.11157393508727  0.7835734963070136  0.5031871755885211  1.0000
  H   H12       1.0  0.8884260651264781  0.21642650371061478  0.4968128244512108  1.0000
  H   H13       1.0  0.9819402496282014  0.7055701253735132  0.4913631293079273  1.0000
  H   H14       1.0  0.01805975058554682  0.29442987464411535  0.5086368707318046  1.0000
  H   H15       1.0  0.8846215954837093  0.49080351596168215  0.7390566912326219  1.0000
  H   H16       1.0  0.11537840371708893  0.5091964840515597  0.2609433088104385  1.0000
  H   H17       1.0  0.9503140888039375  0.4729332529333635  0.8707772352853874  1.0000
  H   H18       1.0  0.04968591140981073  0.5270667470842649  0.12922276475434447  1.0000
  H   H19       1.0  0.2275799333351593  0.6923884175933904  0.8191281604440639  1.0000
  H   H20       1.0  0.7724200668785889  0.30761158242423803  0.18087183959566794  1.0000
  H   H21       1.0  0.8159394352848004  0.13466858914974794  0.5954120535351053  1.0000
  H   H22       1.0  0.1840605649289478  0.8653314108678805  0.40458794650462665  1.0000
  H   H23       1.0  0.879599888358649  0.05655256307003996  0.6862321399366601  1.0000
  H   H24       1.0  0.12040011185509916  0.9434474369475886  0.31376786010307167  1.0000
  H   H25       1.0  0.5371256188736996  0.5901461614220719  0.6123911241406663  1.0000
  H   H26       1.0  0.4628743813376801  0.40985383859507696  0.38760887536173205  1.0000
  H   H27       1.0  0.4515514671589584  0.7213126953757654  0.7071829471598015  1.0000
  H   H28       1.0  0.5484485330547899  0.2786873046418631  0.29281705287993043  1.0000
  H   H29       1.0  0.6568099657359477  0.42181052691595083  0.876042771277772  1.0000
  H   H30       1.0  0.3431900344778005  0.5781894731016776  0.12395722876195979  1.0000
  H   H31       1.0  0.602979486303316  0.7550719004859116  0.546579599852169  1.0000
  H   H32       1.0  0.39702051391043225  0.2449280995317171  0.45342040018756274  1.0000
  H   H33       1.0  0.41571602176118233  0.718690652778106  0.47453388517998013  1.0000
  H   H34       1.0  0.5842839784525659  0.2813093472395225  0.5254661148597517  1.0000
  H   H35       1.0  0.10827523925583239  0.028699778163646068  0.5238964264822926  1.0000
  H   H36       1.0  0.8917247599449659  0.9713002218495956  0.4761035735607679  1.0000
  H   H37       1.0  0.2789939706695789  0.08020581870252677  0.5983780730118439  1.0000
  H   H38       1.0  0.7210060295441694  0.9197941813151016  0.40162192702788807  1.0000
  H   H39       1.0  0.47569191729210947  0.13495933594089113  0.6243945049349755  1.0000
  H   H40       1.0  0.5243080819086889  0.8650406640723508  0.3756054951080849  1.0000
  H   H41       1.0  0.609366307656328  0.051622198740710466  0.6927382532929104  1.0000
  H   H42       1.0  0.3906336925574202  0.948377801276918  0.30726174674682144  1.0000
  H   H43       1.0  0.43286386209815214  0.042897746335099206  0.7008171809080319  1.0000
  H   H44       1.0  0.567136138115596  0.9571022536825292  0.2991828191316999  1.0000
  H   H45       1.0  0.7059388776522939  0.7679909858001315  0.6597617888884176  1.0000
  H   H46       1.0  0.29406112256145417  0.23200901421749703  0.3402382111513142  1.0000
  H   H47       1.0  0.7686397918310565  0.8942318772694349  0.6657977384148127  1.0000
  H   H48       1.0  0.23136020736974183  0.10576812274380702  0.3342022616282477  1.0000
  H   H49       1.0  0.7523663896857916  0.8495789763410306  0.5797659010889727  1.0000
  H   H50       1.0  0.24763361052795643  0.15042102367659774  0.420234098950759  1.0000
  H   H51       1.0  0.22990242331451907  0.9183288190824652  0.8782085859277139  1.0000
  H   H52       1.0  0.7700975768992291  0.08167118093516335  0.1217914141120179  1.0000
  H   H53       1.0  0.13568545345289781  0.9845314410966687  0.7522055680770035  1.0000
  H   H54       1.0  0.8643145467608503  0.015468558920959854  0.24779443196272835  1.0000
  H   H55       1.0  0.7558485762281644  0.9158477203855125  0.8022274993772506  1.0000
  H   H56       1.0  0.24415142398558376  0.08415227963211609  0.19777250066248134  1.0000
  H   H57       1.0  0.8307331383931859  0.8460615756954621  0.9303254345837226  1.0000
  H   H58       1.0  0.16926686182056222  0.15393842432216648  0.06967456545600925  1.0000
  H   H59       1.0  0.30722168334771227  0.7600683073144388  0.9962403684420771  1.0000
  H   H60       1.0  0.692778316866036  0.23993169270318956  0.003759631597654774  1.0000
  H   H61       1.0  0.23281990590924187  0.8313858071236507  0.07255194869572464  1.0000
  H   H62       1.0  0.7671800943045062  0.16861419289397778  0.9274480513440073  1.0000
  H   H63       1.0  0.25185580833670124  0.922255897378796  0.9910316174405145  1.0000
  H   H64       1.0  0.7481441922176049  0.07774410172344541  0.008968382682277313  1.0000
  H   H65       1.0  0.8882900413460286  0.8637849507550747  0.043758506291191546  1.0000
  H   H66       1.0  0.11170995785476982  0.1362150492581672  0.956241493751869  1.0000
  H   H67       1.0  0.04692035997233934  0.7812773777628472  0.09670995694579618  1.0000
  H   H68       1.0  0.9530796402414089  0.218722622254781  0.9032900430939357  1.0000
  H   H69       1.0  0.985021212415547  0.7122197156601362  0.029380503018002924  1.0000
  H   H70       1.0  0.014978787798201266  0.2877802843574922  0.9706194970217289  1.0000
  C   C1        1.0  0.21126710295939471  0.4205675404735248  0.5222816294181492  1.0000
  C   C2        1.0  0.7887328972543535  0.5794324595441036  0.47771837062158273  1.0000
  C   C3        1.0  0.18538543742951583  0.31760931407993  0.629410634795244  1.0000
  C   C4        1.0  0.8146145617712826  0.6823906859333119  0.3705893652478165  1.0000
  C   C5        1.0  0.13012846688831384  0.24615383844468536  0.6812489606951848  1.0000
  C   C6        1.0  0.8698715333254342  0.753846161572943  0.31875103934454696  1.0000
  C   C7        1.0  0.17726304329566303  0.22627698167947458  0.753919701199747  1.0000
  C   C8        1.0  0.8227369559051355  0.7737230183337672  0.24608029884331326  1.0000
  C   C9        1.0  0.280494527458871  0.2762812015510602  0.7738617712719927  1.0000
  C   C10       1.0  0.7195054727548772  0.7237187984665683  0.22613822876773912  1.0000
  C   C11       1.0  0.33748855035138925  0.34883942235472065  0.7245422778543726  1.0000
  C   C12       1.0  0.6625114488494092  0.6511605776585212  0.2754577221886878  1.0000
  C   C13       1.0  0.2888597759232948  0.36885326759669695  0.6522176073468046  1.0000
  C   C14       1.0  0.7111402242904534  0.6311467324209314  0.34778239269292727  1.0000
  C   C15       1.0  0.41585497802825344  0.1510188953187177  0.8769092957672492  1.0000
  C   C16       1.0  0.5841450221854947  0.8489811046989109  0.12309070427248255  1.0000
  C   C17       1.0  0.05453118300431263  0.6974541225958225  0.5958895447508025  1.0000
  C   C18       1.0  0.9454688172094357  0.30254587742180594  0.40411045528892925  1.0000
  C   C19       1.0  0.017486317036562202  0.6034335165250612  0.7040560432463825  1.0000
  C   C20       1.0  0.9825136821642364  0.39656648348818063  0.29594395679667784  1.0000
  C   C21       1.0  0.9599934463928678  0.5341438705142356  0.7559955078306357  1.0000
  C   C22       1.0  0.04000655382088036  0.4658561295033929  0.24400449220909598  1.0000
  C   C23       1.0  0.9976078139684113  0.5231376443686861  0.8294948731806756  1.0000
  C   C24       1.0  0.0023921862453367996  0.47686235564894225  0.17050512685905617  1.0000
  C   C25       1.0  0.09356832747337807  0.5799994877728301  0.850075838681158  1.0000
  C   C26       1.0  0.90643167274037  0.42000051224479845  0.14992416135857373  1.0000
  C   C27       1.0  0.1550410967147796  0.6481794475626107  0.8003394082803942  1.0000
  C   C28       1.0  0.8449589034989686  0.35182055245501775  0.19966059175933773  1.0000
  C   C29       1.0  0.11476496905735091  0.6601257261600899  0.7274252946485571  1.0000
  C   C30       1.0  0.8852350301434475  0.33987427385315194  0.27257470539450324  1.0000
  C   C31       1.0  0.22814260238598202  0.4873083667341696  0.9609035966555478  1.0000
  C   C32       1.0  0.7718573978277662  0.512691633283459  0.03909640338418418  1.0000
  C   C33       1.0  0.775249371082079  0.23879362286823452  0.6778501958363872  1.0000
  C   C34       1.0  0.22475062913166916  0.761206377149394  0.3221498042033446  1.0000
  C   C35       1.0  0.6497891649963278  0.4304986280640795  0.6893178178610676  1.0000
  C   C36       1.0  0.35021083521742036  0.569501371953549  0.3106821821786643  1.0000
  C   C37       1.0  0.5655963227584064  0.5526800095077385  0.6692975441631441  1.0000
  C   C38       1.0  0.4344036777958996  0.4473199895945028  0.3307024559596477  1.0000
  C   C39       1.0  0.5170533058625263  0.6264553426397921  0.7226613261278039  1.0000
  C   C40       1.0  0.48294669333827217  0.37354465737344955  0.2773386739152566  1.0000
  C   C41       1.0  0.552405381449963  0.5777333096741597  0.7956955200590105  1.0000
  C   C42       1.0  0.44759461775083537  0.4222666903390822  0.20430447998404994  1.0000
  C   C43       1.0  0.6338580656659802  0.4564665662760823  0.8184493546997141  1.0000
  C   C44       1.0  0.3661419335348182  0.5435334337371596  0.18155064534334617  1.0000
  C   C45       1.0  0.6824401673439219  0.3839465600055092  0.7644887553906643  1.0000
  C   C46       1.0  0.3175598328698264  0.6160534400121193  0.23551124464906759  1.0000
  C   C47       1.0  0.555306286408338  0.7422237448984754  0.8553778494723897  1.0000
  C   C48       1.0  0.4446937138054101  0.257776255119153  0.14462215056734218  1.0000
  C   C49       1.0  0.45983910706288034  0.9211168809875934  0.581590189356546  1.0000
  C   C50       1.0  0.5401608931508678  0.07888311903003502  0.4184098106831857  1.0000
  C   C51       1.0  0.4949288733047965  0.8183456672939577  0.543972891777871  1.0000
  C   C52       1.0  0.5050711269065832  0.18165433272319106  0.4560271077245274  1.0000
  C   C53       1.0  0.3899176454565671  0.7976588444079763  0.5034827296071935  1.0000
  C   C54       1.0  0.6100823547548125  0.20234115560917246  0.496517269895205  1.0000
  C   C55       1.0  0.21917192838989516  0.969317776786189  0.5306900367492431  1.0000
  C   C56       1.0  0.7808280718238528  0.03068222323143954  0.46930996329048863  1.0000
  C   C57       1.0  0.315481726680652  0.9982781520904694  0.572849900684249  1.0000
  C   C58       1.0  0.6845182735330961  0.0017218479271589823  0.4271500993554828  1.0000
  C   C59       1.0  0.5163093356687216  0.048593147459048504  0.6622451840620288  1.0000
  C   C60       1.0  0.4836906645450264  0.9514068525585799  0.337754815977703  1.0000
  C   C61       1.0  0.7033801189602447  0.8593710356812058  0.6326140049561356  1.0000
  C   C62       1.0  0.2966198812535034  0.14062896433642266  0.3673859950835962  1.0000
  C   C63       1.0  0.03702052192183161  0.8804550631207941  0.9191177109197886  1.0000
  C   C64       1.0  0.9629794772789668  0.11954493689244779  0.08088228912327189  1.0000
  C   C65       1.0  0.12269152424781074  0.9184440227499284  0.8650672842962254  1.0000
  C   C66       1.0  0.8773084759659375  0.08155597726769992  0.1349327157435064  1.0000
  C   C67       1.0  0.06993356978854375  0.9546803630128764  0.7937266039536965  1.0000
  C   C68       1.0  0.9300664304252044  0.045319637004751986  0.20627339608603526  1.0000
  C   C69       1.0  0.860198837946297  0.9166368264095826  0.8211853893311164  1.0000
  C   C70       1.0  0.1398011612545013  0.08336317360365919  0.1788146107119439  1.0000
  C   C71       1.0  0.9018583862314313  0.8787405571170601  0.893999626009245  1.0000
  C   C72       1.0  0.09814161398231695  0.12125944290056849  0.10600037403048687  1.0000
  C   C73       1.0  0.22580979816923014  0.8392772922588841  0.013260274773359072  1.0000
  C   C74       1.0  0.7741902010291998  0.1607227077538782  0.9867397247323678  1.0000
  C   C75       1.0  0.9959501880533895  0.7982569886994202  0.04235795378084612  1.0000
  C   C76       1.0  0.0040498121603586784  0.20174301131820846  0.9576420462588858  1.0000
  N   N1        1.0  0.19346962103079915  0.4647954988139795  0.4514321100685366  1.0000
  N   N2        1.0  0.806530379182949  0.5352045012036488  0.5485678899711951  1.0000
  N   N3        1.0  0.14562816215159838  0.3465011002532449  0.5564711022066551  1.0000
  N   N4        1.0  0.8543718380621498  0.6534988997643836  0.4435288978330768  1.0000
  N   N5        1.0  0.0444307343136177  0.7362945982960488  0.5243051662202417  1.0000
  N   N6        1.0  0.9555692648871807  0.263705401717193  0.47569483382281874  1.0000
  N   N7        1.0  0.9869933468364527  0.6250285927248501  0.6299817416271097  1.0000
  N   N8        1.0  0.013006653374926883  0.3749714072922988  0.3700182578752886  1.0000
  N   N9        1.0  0.8403019023471242  0.13767663936629124  0.6492964192090759  1.0000
  N   N10       1.0  0.15969809786662403  0.8623233606513373  0.35070358083065595  1.0000
  N   N11       1.0  0.7046132707339112  0.34792667944268246  0.6418953403056471  1.0000
  N   N12       1.0  0.29538672947983685  0.652073320574946  0.3581046597340848  1.0000
  N   N13       1.0  0.5581429122449811  0.9439022442575224  0.6233932842002335  1.0000
  N   N14       1.0  0.4418570879687671  0.0560977557601061  0.3766067158394983  1.0000
  N   N15       1.0  0.25214099176655563  0.8704806847401821  0.4959564804687797  1.0000
  N   N16       1.0  0.7478590084471924  0.12951931527744628  0.5040435195709523  1.0000
  N   N17       1.0  0.9402010934092936  0.9557157216459886  0.7702674736810795  1.0000
  N   N18       1.0  0.05979890680445454  0.04428427837163981  0.2297325263586524  1.0000
  N   N19       1.0  0.08186030552491261  0.8472950014103913  0.9903772634676846  1.0000
  N   N20       1.0  0.9181396946888355  0.15270499860723735  0.00962273657204722  1.0000
  O   O1        1.0  0.3246639296536017  0.26073509811403744  0.8482199792784294  1.0000
  O   O2        1.0  0.675336070557778  0.7392649019031113  0.15178002022396894  1.0000
  O   O3        1.0  0.12047835954586654  0.5800511712685839  0.9251441364394695  1.0000
  O   O4        1.0  0.8795216406678819  0.4199488287490446  0.0748558636002623  1.0000
  O   O5        1.0  0.49991524157516637  0.6507012383750213  0.850764200450184  1.0000
  O   O6        1.0  0.5000847586362134  0.34929876164212753  0.14923579905221437  1.0000
  F   F1        1.0  0.45542654596851817  0.1573471670649234  0.9452771239400437  1.0000
  F   F2        1.0  0.54457345424523  0.8426528329527052  0.05472287609968825  1.0000
  F   F3        1.0  0.35665322494663393  0.05773811540675195  0.8812371520656658  1.0000
  F   F4        1.0  0.6433467752671143  0.9422618846108767  0.11876284797406615  1.0000
  F   F5        1.0  0.5365140995298825  0.11510307038108376  0.8386286699007155  1.0000
  F   F6        1.0  0.46348590068386564  0.8848969296365446  0.16137133013901647  1.0000
  F   F7        1.0  0.19927909324372958  0.3787478848660893  0.9726530780086695  1.0000
  F   F8        1.0  0.8007209069700186  0.6212521151515391  0.02734692203106242  1.0000
  F   F9        1.0  0.35456234528041025  0.4661719828203142  0.9273546907793779  1.0000
  F   F10       1.0  0.645437654933338  0.5338280171973143  0.07264530926035406  1.0000
  F   F11       1.0  0.24761631468138692  0.5174181778563282  0.027307583064556173  1.0000
  F   F12       1.0  0.7523836855323613  0.4825818221613002  0.9726924169751758  1.0000
  F   F13       1.0  0.700367678755508  0.7063277216204334  0.8553238176586737  1.0000
  F   F14       1.0  0.29963232044529053  0.2936722783928084  0.14467618238438665  1.0000
  F   F15       1.0  0.5137746408939725  0.7867042954412222  0.9177721003070515  1.0000
  F   F16       1.0  0.4862253596603337  0.21329570366101913  0.08222789981574039  1.0000
  F   F17       1.0  0.5074460683904846  0.8382924566794825  0.7992002110959121  1.0000
  F   F18       1.0  0.4925539318232637  0.16170754333814602  0.20079978894381978  1.0000
  S   S1        1.0  0.3349731687053539  0.4555544552263522  0.5776141943930941  1.0000
  S   S2        1.0  0.6650268304954445  0.5444455447868896  0.4223858056499662  1.0000
  S   S3        1.0  0.1639465104811176  0.745067391376693  0.6531426429278404  1.0000
  S   S4        1.0  0.8360534897326306  0.2549326086409355  0.34685735711189153  1.0000
  S   S5        1.0  0.783965630857781  0.23076068117822623  0.7745413082859883  1.0000
  S   S6        1.0  0.21603436935596715  0.7692393188394023  0.2254586917537435  1.0000
