data_image0
_chemical_formula_structural       H40C56N12O12F12S4
_chemical_formula_sum              "H40 C56 N12 O12 F12 S4"
_cell_length_a       17.80845757564364
_cell_length_b       11.406121413881811
_cell_length_c       7.111730430761613
_cell_angle_alpha    90.0
_cell_angle_beta     94.15725255840289
_cell_angle_gamma    90.0

_space_group_name_H-M_alt    "P 1"
_space_group_IT_number       1

loop_
  _space_group_symop_operation_xyz
  'x, y, z'

loop_
  _atom_site_type_symbol
  _atom_site_label
  _atom_site_symmetry_multiplicity
  _atom_site_fract_x
  _atom_site_fract_y
  _atom_site_fract_z
  _atom_site_occupancy
  H   H1        1.0  0.11228515904674975  0.49446075184996624  0.4210623967221901  1.0000
  H   H2        1.0  0.8877148406172395  0.9944607521181639  0.07893760332739073  1.0000
  H   H3        1.0  0.8877148409633319  0.5055392478097067  0.5789376040624173  1.0000
  H   H4        1.0  0.11228515939355253  0.00553924841823139  0.9210623960512192  1.0000
  H   H5        1.0  0.09843312064301503  0.34241090185544726  0.39796079628297065  1.0000
  H   H6        1.0  0.9015668790216846  0.8424109021236448  0.1020392023606127  1.0000
  H   H7        1.0  0.901566879367777  0.6575890978042257  0.6020392030956393  1.0000
  H   H8        1.0  0.09843312098910748  0.15758909753602815  0.8979607970179974  1.0000
  H   H9        1.0  0.3267568228967818  0.11646140978153227  0.7126055079104809  1.0000
  H   H10       1.0  0.6732431774601028  0.6164614100497299  0.7873944922031556  1.0000
  H   H11       1.0  0.6732431771140103  0.8835385898781407  0.287394491468129  1.0000
  H   H12       1.0  0.326756822549979  0.3835385896099431  0.21260550858145183  1.0000
  H   H13       1.0  0.45577633701275927  0.15732694970404373  0.8546914385786951  1.0000
  H   H14       1.0  0.5442236627811133  0.6573269490955191  0.6453085614309626  1.0000
  H   H15       1.0  0.5442236629973225  0.8426730508323514  0.14530856220591232  1.0000
  H   H16       1.0  0.4557763372296787  0.34267305056415387  0.35469143794764735  1.0000
  H   H17       1.0  0.42431617535631155  0.5284569593187094  0.7649860166025464  1.0000
  H   H18       1.0  0.5756838244375612  0.028456959050511762  0.7350139834071115  1.0000
  H   H19       1.0  0.5756838246544804  0.47154304121768587  0.23501398277606367  1.0000
  H   H20       1.0  0.42431617557252066  0.9715430406091613  0.264986017377496  1.0000
  H   H21       1.0  0.06524922711652792  0.12321241366847002  0.32084860804754445  1.0000
  H   H22       1.0  0.9347507725474615  0.6232124139366676  0.17915139200203636  1.0000
  H   H23       1.0  0.9347507728935539  0.876787585991203  0.6791513927370629  1.0000
  H   H24       1.0  0.06524922746333069  0.37678758572300536  0.8208486073765737  1.0000
  H   H25       1.0  0.0007341625612565821  0.9534867923432654  0.2285662906815121  1.0000
  H   H26       1.0  0.9992658376657447  0.4534867920750679  0.2714337094720476  1.0000
  H   H27       1.0  0.9992658374495356  0.04651320819312974  0.7714337086970978  1.0000
  H   H28       1.0  0.0007341623443371472  0.5465132075846052  0.7285662913125598  1.0000
  H   H29       1.0  0.16544503654438772  0.7434317882746558  0.5509357008030578  1.0000
  H   H30       1.0  0.8345549632494849  0.24343178800645818  0.9490642992066001  1.0000
  H   H31       1.0  0.8345549634656939  0.2565682122617394  0.4490642999815497  1.0000
  H   H32       1.0  0.16544503676130717  0.7565682116532148  0.050935700172009976  1.0000
  H   H33       1.0  0.23357140758348807  0.9308483852432202  0.6432279917095437  1.0000
  H   H34       1.0  0.7664285927733965  0.43084838585174484  0.856772008404093  1.0000
  H   H35       1.0  0.7664285924273039  0.06915161441645276  0.3567720076690663  1.0000
  H   H36       1.0  0.23357140723668535  0.5691516146846504  0.14322799238051453  1.0000
  H   H37       1.0  0.178813714956125  0.12355841471972984  0.5192045700110205  1.0000
  H   H38       1.0  0.8211862854007596  0.6235584149879275  0.9807954301026162  1.0000
  H   H39       1.0  0.8211862850546671  0.8764415849399431  0.48079542936758957  1.0000
  H   H40       1.0  0.17881371460932222  0.3764415855484678  0.019204570681991315  1.0000
  C   C1        1.0  0.2006675081100422  0.3918395656003238  0.5273556728275078  1.0000
  C   C2        1.0  0.7993324916838305  0.8918395649917992  0.97264432718215  1.0000
  C   C3        1.0  0.7993324919000395  0.6081604349360714  0.47264432795709965  1.0000
  C   C4        1.0  0.20066750832696165  0.1081604346678738  0.027355672196460037  1.0000
  C   C5        1.0  0.3011833277194513  0.2993231069629728  0.657894299319497  1.0000
  C   C6        1.0  0.6988166720744213  0.7993231072311705  0.8421057006901609  1.0000
  C   C7        1.0  0.6988166722906304  0.7006768926967002  0.3421057014651105  1.0000
  C   C8        1.0  0.30118332737335884  0.2006768924285026  0.15789429858447035  1.0000
  C   C9        1.0  0.34745214720527917  0.20621533426229863  0.7222720684246692  1.0000
  C   C10       1.0  0.6525478525885935  0.7062153345304962  0.7777279315849885  1.0000
  C   C11       1.0  0.652547852805513  0.7937846653973744  0.2777279309539408  1.0000
  C   C12       1.0  0.3474521474221986  0.2937846651291768  0.2222720677936214  1.0000
  C   C13       1.0  0.4199750828736904  0.22875403437530303  0.8003153419284258  1.0000
  C   C14       1.0  0.5800249169201821  0.7287540346435007  0.699684658081232  1.0000
  C   C15       1.0  0.5800249171363913  0.7712459652843698  0.1996846588561817  1.0000
  C   C16       1.0  0.4199750830906099  0.27124596589289457  0.30031534129737797  1.0000
  C   C17       1.0  0.4457798170506512  0.3441996019104168  0.8121581400070009  1.0000
  C   C18       1.0  0.5542201827432214  0.8441996021786144  0.687841860002657  1.0000
  C   C19       1.0  0.5542201829601409  0.6558003986259784  0.1878418593716091  1.0000
  C   C20       1.0  0.4457798172668603  0.15580039835778078  0.3121581407819506  1.0000
  C   C21       1.0  0.40208374946345676  0.4398857804453658  0.750921572958454  1.0000
  C   C22       1.0  0.5979162503304158  0.9398857807135634  0.7490784270512039  1.0000
  C   C23       1.0  0.5979162505473352  0.5601142192143072  0.249078426420156  1.0000
  C   C24       1.0  0.40208374967966587  0.06011421894610956  0.2509215737334037  1.0000
  C   C25       1.0  0.3296942123622651  0.4158793956223227  0.6734396791469079  1.0000
  C   C26       1.0  0.6703057879946194  0.9158793958905204  0.8265603209667287  1.0000
  C   C27       1.0  0.670305787648527  0.5841206049140726  0.326560320231702  1.0000
  C   C28       1.0  0.3296942120154623  0.08412060464587495  0.1734396798178788  1.0000
  C   C29       1.0  0.5779807282036592  0.35656694176954884  0.7990456558520836  1.0000
  C   C30       1.0  0.4220192715902134  0.8565669411610242  0.7009543441575742  1.0000
  C   C31       1.0  0.42201927180642257  0.6434330587668464  0.2009543449325239  1.0000
  C   C32       1.0  0.5779807284205786  0.14343305849864876  0.2990456552210358  1.0000
  C   C33       1.0  0.05129663164021756  0.9411144113314126  0.3210576772482526  1.0000
  C   C34       1.0  0.948703368587494  0.4411144110632149  0.17894232149930964  1.0000
  C   C35       1.0  0.9487033683705746  0.05888558920498264  0.6789423221303574  1.0000
  C   C36       1.0  0.05129663142329813  0.5588855885964581  0.8210576778793004  1.0000
  C   C37       1.0  0.07725329911644628  0.8325336812952846  0.3851357745929972  1.0000
  C   C38       1.0  0.9227467011105548  0.33253368102708697  0.11486422556056257  1.0000
  C   C39       1.0  0.9227467008943459  0.16746631836438847  0.6148642247856129  1.0000
  C   C40       1.0  0.07725329889952687  0.6674663186325861  0.885135775224045  1.0000
  C   C41       1.0  0.1443174859570944  0.8283573264879419  0.5006626274676118  1.0000
  C   C42       1.0  0.8556825138367782  0.3283573262197442  0.999337372542046  1.0000
  C   C43       1.0  0.8556825140529873  0.17164267317173118  0.4993373733169956  1.0000
  C   C44       1.0  0.14431748617401388  0.6716426734399288  0.0006626268365640623  1.0000
  C   C45       1.0  0.18214597608817498  0.9317225246319055  0.5512945247978152  1.0000
  C   C46       1.0  0.8178540237056976  0.43172252436370784  0.9487054752118426  1.0000
  C   C47       1.0  0.8178540233596051  0.06827747502776754  0.4487054744768159  1.0000
  C   C48       1.0  0.18214597630438412  0.5682774752959652  0.05129452557276489  1.0000
  C   C49       1.0  0.1529925632916807  0.03811600404944671  0.4852227960751371  1.0000
  C   C50       1.0  0.8470074363723085  0.538116003440922  0.014777203974443756  1.0000
  C   C51       1.0  0.847007436718401  0.9618839964869484  0.5147772047094704  1.0000
  C   C52       1.0  0.15299256363848351  0.4618839962187509  0.9852227954041664  1.0000
  C   C53       1.0  0.032813484748463996  0.7235944691904821  0.33273952305549076  1.0000
  C   C54       1.0  0.9671865149155253  0.22359446892228446  0.16726047699409005  1.0000
  C   C55       1.0  0.967186515262328  0.2764055304691909  0.6672604763231192  1.0000
  C   C56       1.0  0.032813485094556435  0.7764055307373885  0.8327395237905174  1.0000
  N   N1        1.0  0.13241168389377309  0.41108592920055914  0.4417517853129516  1.0000
  N   N2        1.0  0.8675883163332281  0.9110859285920345  0.05824821484060805  1.0000
  N   N3        1.0  0.8675883161170189  0.5889140713358361  0.5582482140656583  1.0000
  N   N4        1.0  0.1324116836768537  0.08891407106763845  0.9417517859439994  1.0000
  N   N5        1.0  0.2286784208426458  0.2890221487549527  0.5775762807697744  1.0000
  N   N6        1.0  0.7713215789512269  0.7890221490231503  0.9224237192398834  1.0000
  N   N7        1.0  0.7713215791674359  0.7109778509047203  0.422423720014833  1.0000
  N   N8        1.0  0.22867842105956523  0.2109778515132449  0.07757628013872661  1.0000
  N   N9        1.0  0.08901653229376245  0.03924822415577337  0.3720756942457059  1.0000
  N   N10       1.0  0.9109834679332387  0.539248224423971  0.12792430590785378  1.0000
  N   N11       1.0  0.9109834677170295  0.9607517755038996  0.6279243051329041  1.0000
  N   N12       1.0  0.08901653207684301  0.460751775235702  0.8720756948767537  1.0000
  O   O1        1.0  0.5181720949390994  0.3683137227425213  0.9022932920223391  1.0000
  O   O2        1.0  0.4818279054177849  0.8683137230107189  0.5977067080912976  1.0000
  O   O3        1.0  0.4818279050716925  0.6316862769171517  0.0977067073562708  1.0000
  O   O4        1.0  0.5181720945922967  0.13168627752567633  0.40229329269331  1.0000
  O   O5        1.0  0.9700467126734732  0.7388532950160761  0.2355486793991601  1.0000
  O   O6        1.0  0.029953286990516116  0.23885329474787842  0.2644513206504207  1.0000
  O   O7        1.0  0.029953287337318894  0.2611467055203192  0.7644513199794499  1.0000
  O   O8        1.0  0.9700467130195656  0.7611467049117945  0.7355486801341867  1.0000
  O   O9        1.0  0.05958689604491645  0.6263207308406812  0.38625381517486757  1.0000
  O   O10       1.0  0.9404131041820846  0.1263207305724836  0.11374618497869204  1.0000
  O   O11       1.0  0.9404131039651651  0.373679269695714  0.6137461856097398  1.0000
  O   O12       1.0  0.05958689582870734  0.8736792699639117  0.8862538143999179  1.0000
  F   F1        1.0  0.6396593972108257  0.3962589329006448  0.9034664817268935  1.0000
  F   F2        1.0  0.36034060258304695  0.8962589322921202  0.5965335182827644  1.0000
  F   F3        1.0  0.3603406027999663  0.6037410676357504  0.09653351765171654  1.0000
  F   F4        1.0  0.6396593974270348  0.10374106736755283  0.4034664825018431  1.0000
  F   F5        1.0  0.5925768066284287  0.24323228372998865  0.7500986854888068  1.0000
  F   F6        1.0  0.4074231931654439  0.7432322831214639  0.749901314520851  1.0000
  F   F7        1.0  0.40742319338165306  0.7567677168064066  0.24990131529580065  1.0000
  F   F8        1.0  0.5925768062823362  0.25676771653820896  0.2500986847537802  1.0000
  F   F9        1.0  0.5718200288216737  0.41897048756503075  0.6340851193687425  1.0000
  F   F10       1.0  0.42817997097219884  0.9189704878332282  0.8659148806409155  1.0000
  F   F11       1.0  0.42817997118840795  0.5810295120946423  0.3659148814158651  1.0000
  F   F12       1.0  0.5718200290385932  0.08102951182644466  0.13408511873769458  1.0000
  S   S1        1.0  0.2618529659949432  0.5133840064926277  0.578562642179488  1.0000
  S   S2        1.0  0.7381470343619413  0.013384006224430135  0.9214373579341486  1.0000
  S   S3        1.0  0.7381470340158488  0.4866159940437675  0.4214373571991219  1.0000
  S   S4        1.0  0.2618529656481404  0.9866159943119651  0.07856264285045896  1.0000
