data_image0
_chemical_formula_structural       H48C44N52O40
_chemical_formula_sum              "H48 C44 N52 O40"
_cell_length_a       6.9097964859274175
_cell_length_b       14.894588060389205
_cell_length_c       20.348526644005748
_cell_angle_alpha    70.40256951236113
_cell_angle_beta     83.7992891624803
_cell_angle_gamma    87.66735006677588

_space_group_name_H-M_alt    "P 1"
_space_group_IT_number       1

loop_
  _space_group_symop_operation_xyz
  'x, y, z'

loop_
  _atom_site_type_symbol
  _atom_site_label
  _atom_site_symmetry_multiplicity
  _atom_site_fract_x
  _atom_site_fract_y
  _atom_site_fract_z
  _atom_site_occupancy
  H   H1        1.0  0.1512568760956382  0.3217977666218301  0.07646770590699675  1.0000
  H   H2        1.0  0.8487431229551318  0.6782022333189087  0.9235322940735938  1.0000
  H   H3        1.0  0.8920740878253828  0.3125841589994074  0.07577904465812436  1.0000
  H   H4        1.0  0.10792591122538718  0.6874158409413316  0.9242209553224662  1.0000
  H   H5        1.0  0.04736416155440108  0.34996319757936417  0.9949218093196475  1.0000
  H   H6        1.0  0.9526358389521085  0.6500368023611334  0.005078190607650692  1.0000
  H   H7        1.0  0.3678991638253264  0.21025403883190608  0.042499335895938274  1.0000
  H   H8        1.0  0.6321008352254437  0.7897459611088329  0.9575006640846522  1.0000
  H   H9        1.0  0.2593124979195322  0.23171784424936395  0.9618141059301255  1.0000
  H   H10       1.0  0.7406875011247779  0.7682821564040487  0.038185893876941615  1.0000
  H   H11       1.0  0.27044353264052323  0.11311700581036849  0.022973443214003846  1.0000
  H   H12       1.0  0.7295564664102469  0.8868829941303704  0.9770265567665867  1.0000
  H   H13       1.0  0.16564360561468022  0.15733670116046522  0.15303825959854522  1.0000
  H   H14       1.0  0.8343563934360898  0.8426632987802738  0.8469617403820453  1.0000
  H   H15       1.0  0.062330015405686036  0.06509359245324013  0.12945747249025388  1.0000
  H   H16       1.0  0.937669983645084  0.9349064074874989  0.8705425274903367  1.0000
  H   H17       1.0  0.9062778027353382  0.14877960574338078  0.15470864905015796  1.0000
  H   H18       1.0  0.09372219777117127  0.8512203941971166  0.8452913508771402  1.0000
  H   H19       1.0  0.9156195491018131  0.2258223858115006  0.962414705935869  1.0000
  H   H20       1.0  0.08438045140458869  0.7741776141272441  0.0375852944832979  1.0000
  H   H21       1.0  0.7620620560413179  0.18738729505391155  0.04457139614568273  1.0000
  H   H22       1.0  0.23793794446519148  0.8126127048865861  0.9554286037816153  1.0000
  H   H23       1.0  0.9213862149740555  0.10431811150172408  0.019071466897195896  1.0000
  H   H24       1.0  0.07861378553245381  0.8956818884387733  0.9809285330301023  1.0000
  H   H25       1.0  0.5059023951188459  0.7047626824760043  0.5119691578202153  1.0000
  H   H26       1.0  0.49409760393192387  0.2952373174647347  0.48803084216037507  1.0000
  H   H27       1.0  0.32056265104709514  0.6952155835527548  0.5827125306096175  1.0000
  H   H28       1.0  0.6794373480036748  0.3047844163879841  0.417287469370973  1.0000
  H   H29       1.0  0.359615995584365  0.806582246085821  0.5133708863562468  1.0000
  H   H30       1.0  0.6403840049221445  0.19341775385467652  0.48662911357105126  1.0000
  H   H31       1.0  0.9136366768460022  0.7065825906505819  0.4786267858417263  1.0000
  H   H32       1.0  0.08636332366050727  0.2934174092899156  0.5213732140855718  1.0000
  H   H33       1.0  0.009763690552038433  0.8060276019518742  0.49572673994343347  1.0000
  H   H34       1.0  0.9902363084987317  0.1939723979888647  0.5042732600371571  1.0000
  H   H35       1.0  0.9795436160202163  0.6934276633300953  0.5644363728062572  1.0000
  H   H36       1.0  0.020456383030553627  0.30657233661064354  0.4355636271743333  1.0000
  H   H37       1.0  0.4179267109078036  0.7300494897157728  0.39699537581898703  1.0000
  H   H38       1.0  0.5820732881365065  0.2699505109376399  0.60300462398808  1.0000
  H   H39       1.0  0.255871387466801  0.8263572166506246  0.39843163091139067  1.0000
  H   H40       1.0  0.7441286115839689  0.17364278329011443  0.6015683690691999  1.0000
  H   H41       1.0  0.1686894822579549  0.7248783899725543  0.3816669641296818  1.0000
  H   H42       1.0  0.831310516792815  0.27512160996818463  0.6183330358509087  1.0000
  H   H43       1.0  0.3756383073848154  0.577223530059211  0.48571044143641606  1.0000
  H   H44       1.0  0.6243616916659545  0.4227764698815279  0.5142895585441744  1.0000
  H   H45       1.0  0.12219107761866482  0.5752385746303285  0.4738099500879691  1.0000
  H   H46       1.0  0.8778089228878445  0.424761425310169  0.526190049839329  1.0000
  H   H47       1.0  0.1941129888897299  0.5599501450863297  0.5593333782248286  1.0000
  H   H48       1.0  0.8058870116167796  0.4400498548541678  0.44066662170246945  1.0000
  C   C1        1.0  0.4548433603040997  0.22386756893017906  0.33162986098449265  1.0000
  C   C2        1.0  0.5451566402024097  0.7761324310103184  0.6683701389428055  1.0000
  C   C3        1.0  0.680836465625719  0.10631463814793386  0.3263143614561722  1.0000
  C   C4        1.0  0.31916353488079047  0.8936853617925636  0.673685638471126  1.0000
  C   C5        1.0  0.5638223056613029  0.18305420856485294  0.22528499547625724  1.0000
  C   C6        1.0  0.4361776933894671  0.816945791375886  0.7747150045043333  1.0000
  C   C7        1.0  0.8166007490591739  0.028597790862662502  0.3653151512775768  1.0000
  C   C8        1.0  0.18339924999159588  0.9714022090780764  0.6346848487030137  1.0000
  C   C9        1.0  0.03581932427973652  0.3045694981099012  0.04992637393736828  1.0000
  C   C10       1.0  0.9641806762267728  0.6954305018305963  0.95007362598993  1.0000
  C   C11       1.0  0.2543399695041574  0.18875941807796662  0.01730248689933389  1.0000
  C   C12       1.0  0.7456600295466126  0.8112405818627723  0.9826975130812566  1.0000
  C   C13       1.0  0.04765513439698154  0.1390414542293027  0.12824025133604494  1.0000
  C   C14       1.0  0.9523448646537884  0.8609585457114363  0.8717597486445456  1.0000
  C   C15       1.0  0.9028425849279189  0.1784170589117494  0.017029823771363885  1.0000
  C   C16       1.0  0.09715741412285116  0.8215829410289894  0.9829701762092267  1.0000
  C   C17       1.0  0.8982844139760849  0.710117425902124  0.19574415809397563  1.0000
  C   C18       1.0  0.10171558653042449  0.2898825740383735  0.8042558418333227  1.0000
  C   C19       1.0  0.6142807344870321  0.794924198783888  0.20691891961302442  1.0000
  C   C20       1.0  0.3857192660193698  0.20507580115485655  0.7930810808061427  1.0000
  C   C21       1.0  0.7167402867746909  0.7067692380088413  0.30795378933461526  1.0000
  C   C22       1.0  0.283259712276079  0.2932307619318975  0.6920462106459752  1.0000
  C   C23       1.0  0.47751568130866145  0.8717800507781501  0.16776480649450207  1.0000
  C   C24       1.0  0.5224843177421086  0.12821994916258875  0.8322351934860884  1.0000
  C   C25       1.0  0.36134062355965235  0.7291326148617665  0.5266667328430024  1.0000
  C   C26       1.0  0.6386593754911175  0.2708673850789725  0.47333326713758817  1.0000
  C   C27       1.0  0.014686522732003411  0.7287311737068513  0.5081431631848075  1.0000
  C   C28       1.0  0.985313476318659  0.2712688262321349  0.4918568372876519  1.0000
  C   C29       1.0  0.26837632732484257  0.7492766205274206  0.41021561088693875  1.0000
  C   C30       1.0  0.7316236731816669  0.25072337941307693  0.5897843890403593  1.0000
  C   C31       1.0  0.22781036468893606  0.595050285273566  0.5029224242057565  1.0000
  C   C32       1.0  0.7721896343618339  0.404949714667173  0.49707757577483397  1.0000
  C   C33       1.0  0.3525435804429637  0.5303994814427931  0.14958489214412746  1.0000
  C   C34       1.0  0.6474564200635458  0.4696005184977044  0.8504151077831706  1.0000
  C   C35       1.0  0.17277544224223187  0.4969485879174329  0.13784179054929047  1.0000
  C   C36       1.0  0.8272245582642775  0.5030514120230646  0.8621582093780077  1.0000
  C   C37       1.0  0.03659621143066451  0.4525991438005803  0.1973219878308252  1.0000
  C   C38       1.0  0.9634037890758451  0.5474008561399172  0.8026780120964729  1.0000
  C   C39       1.0  0.07678602005540118  0.4417633538300866  0.26715026650231277  1.0000
  C   C40       1.0  0.9232139804511083  0.5582366461104109  0.7328497334249855  1.0000
  C   C41       1.0  0.25600992082200924  0.4788696131702584  0.2767381497610887  1.0000
  C   C42       1.0  0.7439900782286532  0.5211303867687276  0.7232618507113707  1.0000
  C   C43       1.0  0.39527935531309044  0.5232575248745248  0.2185770003357878  1.0000
  C   C44       1.0  0.6047206451868514  0.47674247577689366  0.7814229999098559  1.0000
  N   N1        1.0  0.5807214493513825  0.15342884383474883  0.36373177938589335  1.0000
  N   N2        1.0  0.41927855114866713  0.8465711568184225  0.6362682203678814  1.0000
  N   N3        1.0  0.6823616564930384  0.11313905190882201  0.2593046700924771  1.0000
  N   N4        1.0  0.3176383425577317  0.886860948031917  0.7406953298881135  1.0000
  N   N5        1.0  0.5273676943937463  0.21371514618852877  0.1578312345465178  1.0000
  N   N6        1.0  0.4726323061127632  0.7862848537519688  0.8421687653807803  1.0000
  N   N7        1.0  0.3991671565378552  0.2867693375930511  0.15171417373322493  1.0000
  N   N8        1.0  0.6008328439686544  0.7132306623474464  0.8482858261940732  1.0000
  N   N9        1.0  0.35328440718708953  0.30265376291032675  0.2108879577429022  1.0000
  N   N10       1.0  0.6467155918636804  0.6973462370304122  0.7891120422376884  1.0000
  N   N11       1.0  0.4563973389354524  0.23816855812383173  0.2583176495542349  1.0000
  N   N12       1.0  0.5436026615710571  0.7618314418166657  0.7416823503730631  1.0000
  N   N13       1.0  0.036815361002233635  0.051307017851165634  0.34188964431127017  1.0000
  N   N14       1.0  0.9631846380485363  0.9486929820895733  0.6581103556693202  1.0000
  N   N15       1.0  0.7665900587500083  0.9351479927852351  0.35342690827020923  1.0000
  N   N16       1.0  0.2334099417499337  0.06485200786618343  0.6465730919754343  1.0000
  N   N17       1.0  0.7966299053474227  0.013299000168074719  0.4446562855671936  1.0000
  N   N18       1.0  0.20337009515908672  0.9867009997724228  0.5553437143601043  1.0000
  N   N19       1.0  0.06021836904423655  0.20258735408042172  0.05327399642478783  1.0000
  N   N20       1.0  0.9397816300065335  0.7974126458603172  0.9467260035558026  1.0000
  N   N21       1.0  0.7594454362259009  0.7742309404153067  0.1656835699842911  1.0000
  N   N22       1.0  0.24055456428060862  0.22576905952519072  0.8343164299430069  1.0000
  N   N23       1.0  0.5770215877577114  0.7656635584313987  0.2761337375371836  1.0000
  N   N24       1.0  0.42297841274869047  0.234336441507346  0.7238662628819834  1.0000
  N   N25       1.0  0.7361878957211708  0.665839197221501  0.37639040731361384  1.0000
  N   N26       1.0  0.26381210478533856  0.3341608027189966  0.6236095926136842  1.0000
  N   N27       1.0  0.9038071443435174  0.6150179253896669  0.37928988919560125  1.0000
  N   N28       1.0  0.09619285470714493  0.3849820745493191  0.6207101112768582  1.0000
  N   N29       1.0  0.9887569280495861  0.6215573690777504  0.3170885579771482  1.0000
  N   N30       1.0  0.011243072456923228  0.3784426308627471  0.6829114419501501  1.0000
  N   N31       1.0  0.8724394350233697  0.6795041003880995  0.27089007044625685  1.0000
  N   N32       1.0  0.12756056548313982  0.32049589955239793  0.7291099294810414  1.0000
  N   N33       1.0  0.3589412282842691  0.8483797629380035  0.11518450836481034  1.0000
  N   N34       1.0  0.6410587722221328  0.15162023700074098  0.8848154920543567  1.0000
  N   N35       1.0  0.603463738471043  0.9605844191333793  0.12573021655570965  1.0000
  N   N36       1.0  0.39653626202900655  0.039415581519792076  0.874269783198065  1.0000
  N   N37       1.0  0.3207462177574894  0.8975659314359601  0.2185936133654625  1.0000
  N   N38       1.0  0.67925378274902  0.10243406850453737  0.7814063865618357  1.0000
  N   N39       1.0  0.21712892018620977  0.7008913685748454  0.48713040594459817  1.0000
  N   N40       1.0  0.7828710788581003  0.2991086320785673  0.5128695938624689  1.0000
  N   N41       1.0  0.4611203266689856  0.5644346951547512  0.08898463398635242  1.0000
  N   N42       1.0  0.5388796738375239  0.4355653047857463  0.9110153659409457  1.0000
  N   N43       1.0  0.16207610713194395  0.5093700856768226  0.07115427216882426  1.0000
  N   N44       1.0  0.8379238933745654  0.49062991426367486  0.9288457277584738  1.0000
  N   N45       1.0  0.8694520520659045  0.41073014680599673  0.19996210381222315  1.0000
  N   N46       1.0  0.1305479484406049  0.5892698531345006  0.8000378961150749  1.0000
  N   N47       1.0  0.938351296227326  0.39472196491066425  0.3142965041756153  1.0000
  N   N48       1.0  0.06164870282344384  0.6052780350300746  0.6857034958049752  1.0000
  N   N49       1.0  0.32329984755002217  0.4798390410803718  0.335091108052156  1.0000
  N   N50       1.0  0.6767001529500274  0.5201609595727995  0.6649088917016187  1.0000
  N   N51       1.0  0.5503405507148861  0.552224848485588  0.238150025845243  1.0000
  N   N52       1.0  0.44965944833588395  0.4477751514551509  0.7618499741353475  1.0000
  O   O1        1.0  0.3503706465079503  0.2721426426442317  0.35952697782932136  1.0000
  O   O2        1.0  0.6496293539984516  0.7278573572945128  0.6404730225898457  1.0000
  O   O3        1.0  0.07697770793003388  0.12347973973502904  0.29166466060397245  1.0000
  O   O4        1.0  0.9230222925764756  0.8765202602054684  0.7083353393233258  1.0000
  O   O5        1.0  0.15026092899840085  0.9944973825618939  0.37716654115072934  1.0000
  O   O6        1.0  0.8497390700523693  0.0055026173788450435  0.6228334588298611  1.0000
  O   O7        1.0  0.8977698912038783  0.8927495141541758  0.3303223210610762  1.0000
  O   O8        1.0  0.10223010784678419  0.10725048578481029  0.6696776794113831  1.0000
  O   O9        1.0  0.5941269869974353  0.9137977628505427  0.3682751493327167  1.0000
  O   O10       1.0  0.4058730135089665  0.08620223708820189  0.6317248510864503  1.0000
  O   O11       1.0  0.8737771603021384  0.07685610899115376  0.45841924037222986  1.0000
  O   O12       1.0  0.1262228402043713  0.9231438909493438  0.5415807595550681  1.0000
  O   O13       1.0  0.7105720225849503  0.94319494915969  0.4853080907625324  1.0000
  O   O14       1.0  0.2894279764657121  0.056805050779295964  0.514691909709927  1.0000
  O   O15       1.0  0.03453371307815455  0.6799551172841815  0.1648216229089992  1.0000
  O   O16       1.0  0.9654662859726154  0.32004488265655756  0.8351783770715911  1.0000
  O   O17       1.0  0.4093631844149814  0.7794301377315989  0.09766998239855408  1.0000
  O   O18       1.0  0.5906368160915282  0.22056986220889863  0.902330017528744  1.0000
  O   O19       1.0  0.22317579822102734  0.9037782523489702  0.09540896280800269  1.0000
  O   O20       1.0  0.7768242022854821  0.09622174759152734  0.9045910371192954  1.0000
  O   O21       1.0  0.7151608260651471  0.9829712426340824  0.160318182776307  1.0000
  O   O22       1.0  0.2848391744413623  0.017028757306415124  0.8396818171509911  1.0000
  O   O23       1.0  0.5829532682549906  0.9989489193825486  0.06319782321170754  1.0000
  O   O24       1.0  0.4170467322515188  0.0010510805579489234  0.9368021767155906  1.0000
  O   O25       1.0  0.19501678755893104  0.8363170293409402  0.24354343906316533  1.0000
  O   O26       1.0  0.8049832129475784  0.16368297059955722  0.7564565608641328  1.0000
  O   O27       1.0  0.3341615729137664  0.9732378150081965  0.22907263388925925  1.0000
  O   O28       1.0  0.6658384275927429  0.026762184932301  0.7709273660380389  1.0000
  O   O29       1.0  0.32747192202581876  0.5503278080485471  0.034856456577026386  1.0000
  O   O30       1.0  0.6725280770249511  0.4496721918921919  0.965143543403564  1.0000
  O   O31       1.0  0.6215047738576245  0.598992342888338  0.06826064507308559  1.0000
  O   O32       1.0  0.378495226648885  0.40100765705215946  0.9317393548542126  1.0000
  O   O33       1.0  0.8020644485653687  0.37113437613102496  0.2805009006629302  1.0000
  O   O34       1.0  0.1979355504854012  0.628865623809714  0.7194990993176602  1.0000
  O   O35       1.0  0.7677070110935135  0.3969100541723069  0.15907453192318255  1.0000
  O   O36       1.0  0.23229298795725653  0.6030899457684322  0.840925468057408  1.0000
  O   O37       1.0  0.5247975827803727  0.5297234883218094  0.3084881208076157  1.0000
  O   O38       1.0  0.4752024162703972  0.47027651161892947  0.6915118791729747  1.0000
  O   O39       1.0  0.2699595544524509  0.45510168679868934  0.3972789804357122  1.0000
  O   O40       1.0  0.7300404445982115  0.5448983131402967  0.6027210200367472  1.0000
