data_image0
_chemical_formula_structural       H48B44C28O8Cl44
_chemical_formula_sum              "H48 B44 C28 O8 Cl44"
_cell_length_a       11.863978998296343
_cell_length_b       14.853216233029224
_cell_length_c       14.151716420990851
_cell_angle_alpha    90.0
_cell_angle_beta     95.19622860036633
_cell_angle_gamma    90.0

_space_group_name_H-M_alt    "P 1"
_space_group_IT_number       1

loop_
  _space_group_symop_operation_xyz
  'x, y, z'

loop_
  _atom_site_type_symbol
  _atom_site_label
  _atom_site_symmetry_multiplicity
  _atom_site_fract_x
  _atom_site_fract_y
  _atom_site_fract_z
  _atom_site_occupancy
  H   H1        1.0  0.017103248933947452  0.9311739096105022  0.24492522093940003  1.0000
  H   H2        1.0  0.982896750951696  0.4311739093758468  0.2550747784798659  1.0000
  H   H3        1.0  0.9828967510473877  0.06882609018555373  0.7550747784545686  1.0000
  H   H4        1.0  0.017103249103595626  0.568826090420209  0.7449252216236433  1.0000
  H   H5        1.0  0.3974683377632801  0.24153213443579852  0.9770937373576983  1.0000
  H   H6        1.0  0.6025316623877032  0.7415321339971991  0.5229062627205135  1.0000
  H   H7        1.0  0.6025316622920115  0.7584678660335122  0.022906262745810743  1.0000
  H   H8        1.0  0.39746833759363204  0.2584678657988569  0.47709373667345517  1.0000
  H   H9        1.0  0.35367440662736377  0.14912585430988937  0.8979565706423002  1.0000
  H   H10       1.0  0.6463255935236195  0.6491258545445449  0.6020434294359116  1.0000
  H   H11       1.0  0.6463255934279278  0.8508741454861666  0.10204342946120892  1.0000
  H   H12       1.0  0.3536744065316721  0.35087414525151117  0.3979565706675974  1.0000
  H   H13       1.0  0.4873940354941961  0.17378648297464133  0.9105978587313961  1.0000
  H   H14       1.0  0.5126059646567872  0.6737864832092967  0.5894021413468157  1.0000
  H   H15       1.0  0.5126059645610955  0.8262135168214146  0.08940214137211297  1.0000
  H   H16       1.0  0.4873940353985044  0.326213517260014  0.41059785875669336  1.0000
  H   H17       1.0  0.4171909401184197  0.3277370559768125  0.07539305441851633  1.0000
  H   H18       1.0  0.5828090597672239  0.827737056211468  0.42460694500074964  1.0000
  H   H19       1.0  0.5828090598629155  0.6722629438192435  0.9246069449754524  1.0000
  H   H20       1.0  0.4171909402141113  0.17226294358458802  0.5753930543932191  1.0000
  H   H21       1.0  0.37801887249368255  0.36490441160800513  0.9720477593359479  1.0000
  H   H22       1.0  0.6219811276573007  0.8649044118426605  0.5279522407422638  1.0000
  H   H23       1.0  0.6219811275616091  0.6350955881880508  0.027952240767561056  1.0000
  H   H24       1.0  0.3780188723979909  0.13509558862665025  0.4720477593612453  1.0000
  H   H25       1.0  0.8100089319702632  0.9147206266200775  0.4017819586977915  1.0000
  H   H26       1.0  0.1899910679893366  0.41472062705867696  0.09821804143101479  1.0000
  H   H27       1.0  0.18999106808502836  0.08527937317597843  0.5982180414057174  1.0000
  H   H28       1.0  0.8100089320659549  0.5852793734106337  0.9017819586724942  1.0000
  H   H29       1.0  0.7939136427463364  0.06221700239878152  0.3191037313822751  1.0000
  H   H30       1.0  0.20608635721326363  0.562217002633437  0.18089626874653122  1.0000
  H   H31       1.0  0.20608635730895533  0.9377829973972743  0.6808962687212341  1.0000
  H   H32       1.0  0.7939136428420279  0.4377829978358739  0.8191037313569778  1.0000
  H   H33       1.0  0.7985409378189509  0.06964201448167018  0.1438599538803116  1.0000
  H   H34       1.0  0.20145906214064915  0.5696420147163256  0.35614004624849477  1.0000
  H   H35       1.0  0.20145906223634086  0.9303579853143857  0.8561400462231975  1.0000
  H   H36       1.0  0.7985409379146423  0.4303579850797304  0.6438599538550144  1.0000
  H   H37       1.0  0.8214755550259417  0.9296604353805903  0.051545438149639175  1.0000
  H   H38       1.0  0.1785244449336583  0.4296604351459348  0.44845456197916717  1.0000
  H   H39       1.0  0.17852444502934997  0.07033956508872055  0.9484545619538698  1.0000
  H   H40       1.0  0.8214755551216333  0.570339564650121  0.5515454381243419  1.0000
  H   H41       1.0  0.8357341479315297  0.7807028355390121  0.13464933858786737  1.0000
  H   H42       1.0  0.16426585202807012  0.2807028353043567  0.3653506615409389  1.0000
  H   H43       1.0  0.16426585212376182  0.21929716425704385  0.8653506615156417  1.0000
  H   H44       1.0  0.8357341480272213  0.7192971644916992  0.63464933856257  1.0000
  H   H45       1.0  0.8272073304104414  0.7734395587976354  0.3090068788895614  1.0000
  H   H46       1.0  0.17279266954915856  0.27343955856297997  0.19099312123924495  1.0000
  H   H47       1.0  0.17279266964485024  0.22656044099842054  0.6909931212139476  1.0000
  H   H48       1.0  0.827207330506133  0.726560441233076  0.809006878864264  1.0000
  B   B1        1.0  0.1754014684095608  0.8969793209078494  0.15468782129238098  1.0000
  B   B2        1.0  0.8245985315500391  0.3969793213464489  0.34531217883642534  1.0000
  B   B3        1.0  0.8245985316457308  0.1030206788882065  0.8453121788111281  1.0000
  B   B4        1.0  0.1754014685052525  0.6030206791228618  0.6546878212670837  1.0000
  B   B5        1.0  0.1657488787406534  0.8191129146120781  0.25042479341091595  1.0000
  B   B6        1.0  0.8342511212189465  0.31911291437742273  0.24957520671789038  1.0000
  B   B7        1.0  0.8342511204715098  0.18088708518397784  0.7495752066903236  1.0000
  B   B8        1.0  0.1657488788363451  0.6808870854186332  0.7504247933856186  1.0000
  B   B9        1.0  0.1694825386113045  0.881940940903437  0.3586499293989119  1.0000
  B   B10       1.0  0.8305174613482954  0.3819409406687817  0.14135007072989444  1.0000
  B   B11       1.0  0.8305174614439871  0.11805905889261886  0.6413500707045972  1.0000
  B   B12       1.0  0.1694825387069962  0.6180590591272743  0.8586499293736146  1.0000
  B   B13       1.0  0.1819060149804868  0.9986823626127718  0.3291517956226444  1.0000
  B   B14       1.0  0.8180939849791131  0.4986823623781163  0.1708482045061619  1.0000
  B   B15       1.0  0.8180939850748048  0.0013176371832842144  0.6708482044808646  1.0000
  B   B16       1.0  0.1819060150761785  0.5013176374179397  0.8291517955973472  1.0000
  B   B17       1.0  0.1858182629217644  0.007871066317611723  0.20366769605595947  1.0000
  B   B18       1.0  0.814181736963879  0.5078710665522671  0.29633230336330646  1.0000
  B   B19       1.0  0.8141817370595709  0.9921289334784442  0.7963323033380092  1.0000
  B   B20       1.0  0.1858182630174561  0.4921289332437888  0.7036676960306621  1.0000
  B   B21       1.0  0.3095396124935188  0.9518858029252916  0.1718045794570969  1.0000
  B   B22       1.0  0.6904603874660812  0.4518858033638911  0.3281954206717095  1.0000
  B   B23       1.0  0.6904603875617729  0.048114196870764285  0.8281954206464122  1.0000
  B   B24       1.0  0.3095396125892104  0.5481141971054198  0.6718045794317995  1.0000
  B   B25       1.0  0.29670495067459324  0.8354454230866097  0.2011021942706451  1.0000
  B   B26       1.0  0.7032950492850066  0.3354454228519543  0.2988978058581612  1.0000
  B   B27       1.0  0.7032950493806985  0.16455457670944626  0.798897805832864  1.0000
  B   B28       1.0  0.2967049507702849  0.6645545769441017  0.7011021942453477  1.0000
  B   B29       1.0  0.29366456095661964  0.8256163236034046  0.3270048828455736  1.0000
  B   B30       1.0  0.7063354390029802  0.3256163233687493  0.17299511728323275  1.0000
  B   B31       1.0  0.7063354390986719  0.17438367619265127  0.6729951172579354  1.0000
  B   B32       1.0  0.29366456105231137  0.6743836764273067  0.8270048828202763  1.0000
  B   B33       1.0  0.30284629609902736  0.9370659533690378  0.37580245570844556  1.0000
  B   B34       1.0  0.6971537038605726  0.43706595313438246  0.12419754442036075  1.0000
  B   B35       1.0  0.6971537039562643  0.06293404710027295  0.6241975443950635  1.0000
  B   B36       1.0  0.30284629619471903  0.5629340466616736  0.8758024556831482  1.0000
  B   B37       1.0  0.3133273550108813  0.015072091894964841  0.2800936265507101  1.0000
  B   B38       1.0  0.6866726449487186  0.5150720914563655  0.21990637357809628  1.0000
  B   B39       1.0  0.6866726450444104  0.984927908574346  0.719906373552799  1.0000
  B   B40       1.0  0.313327355106573  0.4849279083396905  0.7800936265254127  1.0000
  B   B41       1.0  0.3812604307078733  0.9080799396165001  0.27853634182660414  1.0000
  B   B42       1.0  0.6187395692517266  0.40807993938184484  0.2214636583022022  1.0000
  B   B43       1.0  0.6187395693474183  0.0919200601795557  0.7214636582769048  1.0000
  B   B44       1.0  0.3812604308035651  0.5919200604142111  0.7785363418013069  1.0000
  C   C1        1.0  0.1091120767280063  0.9252350362637421  0.25329509433370584  1.0000
  C   C2        1.0  0.8908879232315936  0.42523503602908685  0.24670490579510052  1.0000
  C   C3        1.0  0.890887922484157  0.0747649635323137  0.7467049057675337  1.0000
  C   C4        1.0  0.10911207682369797  0.5747649637669692  0.7532950943084086  1.0000
  C   C5        1.0  0.8103835849812275  0.9174264136610437  0.32486544307513093  1.0000
  C   C6        1.0  0.18961641497837228  0.4174264140996432  0.1751345570536754  1.0000
  C   C7        1.0  0.189616415074064  0.08257358613501219  0.6751345570283781  1.0000
  C   C8        1.0  0.8103835850769194  0.5825735863696676  0.8248654430498337  1.0000
  C   C9        1.0  0.801885429478887  0.0006200899425081357  0.2783705035288279  1.0000
  C   C10       1.0  0.198114570480713  0.5006200895039087  0.22162949659997844  1.0000
  C   C11       1.0  0.19811457057640464  0.9993799105268026  0.7216294965746811  1.0000
  C   C12       1.0  0.8018854295745786  0.49937991029214723  0.7783705035035305  1.0000
  C   C13       1.0  0.8042398717249236  0.004847097683793502  0.18002720764913688  1.0000
  C   C14       1.0  0.1957601282346762  0.504847097245194  0.3199727924796695  1.0000
  C   C15       1.0  0.1957601283303679  0.9951529027855173  0.8199727924543723  1.0000
  C   C16       1.0  0.8042398709774872  0.49515290255086186  0.6800272076215702  1.0000
  C   C17       1.0  0.815692418622303  0.9257476249099015  0.12786884476365487  1.0000
  C   C18       1.0  0.18430758126334038  0.425747625348501  0.3721311546556111  1.0000
  C   C19       1.0  0.18430758135903208  0.0742523748861544  0.8721311546303138  1.0000
  C   C20       1.0  0.8156924187919512  0.5742523751208098  0.6278688454478979  1.0000
  C   C21       1.0  0.8231197501516863  0.8423027998595611  0.17434537233499703  1.0000
  C   C22       1.0  0.17688024980791364  0.34230280029816057  0.3256546277938093  1.0000
  C   C23       1.0  0.17688024990360535  0.1576971999364948  0.8256546277685121  1.0000
  C   C24       1.0  0.8231197502473779  0.6576972001711502  0.6743453723096997  1.0000
  C   C25       1.0  0.8199732803282379  0.8382605009353399  0.2730204743319391  1.0000
  C   C26       1.0  0.18002671963136208  0.3382605007006844  0.22697952579686728  1.0000
  C   C27       1.0  0.18002671888392538  0.16173949953397096  0.7269795257693005  1.0000
  C   C28       1.0  0.8199732804239295  0.6617394990953714  0.7730204743066418  1.0000
  O   O1        1.0  0.4167189894679425  0.1713987246976741  0.9425990982542692  1.0000
  O   O2        1.0  0.5832810106830408  0.6713987249323295  0.5574009018239424  1.0000
  O   O3        1.0  0.5832810105873493  0.8286012750983819  0.05740090184923979  1.0000
  O   O4        1.0  0.4167189893722508  0.3286012755369813  0.44259909827956656  1.0000
  O   O5        1.0  0.3728127978570609  0.3130129459545216  0.014732771136498474  1.0000
  O   O6        1.0  0.6271872021025391  0.813012946189177  0.48526722899230784  1.0000
  O   O7        1.0  0.6271872013551023  0.6869870538415344  0.9852672289647411  1.0000
  O   O8        1.0  0.37281279795275263  0.18698705360687892  0.5147327711112012  1.0000
  Cl  Cl1       1.0  0.10007706877673096  0.8787846985607347  0.04336495250492502  1.0000
  Cl  Cl2       1.0  0.8999229311828689  0.37878469832607936  0.4566350476238813  1.0000
  Cl  Cl3       1.0  0.8999229304354324  0.12121530190857603  0.9566350475963146  1.0000
  Cl  Cl4       1.0  0.10007706887242265  0.6212153014699765  0.5433649524796278  1.0000
  Cl  Cl5       1.0  0.0814946312481406  0.7219289897736253  0.23425610231074595  1.0000
  Cl  Cl6       1.0  0.9185053686375029  0.22192898953896983  0.26574389710852003  1.0000
  Cl  Cl7       1.0  0.9185053687331947  0.27807101069568557  0.7657438970832228  1.0000
  Cl  Cl8       1.0  0.0814946313438323  0.778071010257086  0.7342561022854487  1.0000
  Cl  Cl9       1.0  0.08919309702067701  0.8492576188280136  0.45154794190099423  1.0000
  Cl  Cl10      1.0  0.9108069028649665  0.3492576192666132  0.04845205751827167  1.0000
  Cl  Cl11      1.0  0.910806902960658  0.15074238096804218  0.5484520574929743  1.0000
  Cl  Cl12      1.0  0.08919309634719677  0.6507423805294428  0.9515479425829679  1.0000
  Cl  Cl13      1.0  0.1140638803074031  0.08158283438339652  0.3932525216251571  1.0000
  Cl  Cl14      1.0  0.8859361196521969  0.5815828346180519  0.10674747850364924  1.0000
  Cl  Cl15      1.0  0.8859361197478884  0.9184171654126594  0.606747478478352  1.0000
  Cl  Cl16      1.0  0.11406388040309477  0.4184171658512589  0.8932525215998598  1.0000
  Cl  Cl17      1.0  0.11982410553714899  0.09892423007567945  0.14053237476770894  1.0000
  Cl  Cl18      1.0  0.8801758944224509  0.59892422963708  0.3594676253610974  1.0000
  Cl  Cl19      1.0  0.8801758945181425  0.9010757703936313  0.8594676253358001  1.0000
  Cl  Cl20      1.0  0.11982410563284071  0.40107577015897594  0.6405323747424118  1.0000
  Cl  Cl21      1.0  0.38346805745476364  0.9868971601856541  0.07456162147287869  1.0000
  Cl  Cl22      1.0  0.6165319425048362  0.48689715995099864  0.42543837865592765  1.0000
  Cl  Cl23      1.0  0.6165319426005279  0.013102839610401911  0.9254383786306303  1.0000
  Cl  Cl24      1.0  0.38346805755045543  0.5131028398450573  0.5745616214475814  1.0000
  Cl  Cl25      1.0  0.35808007628797545  0.7495259919022613  0.13438519592923664  1.0000
  Cl  Cl26      1.0  0.6419199236716245  0.2495259923408608  0.3656148041995697  1.0000
  Cl  Cl27      1.0  0.6419199237673162  0.2504740078937946  0.8656148041742724  1.0000
  Cl  Cl28      1.0  0.35808007638366707  0.75047400812845  0.6343851959039394  1.0000
  Cl  Cl29      1.0  0.35233299783773786  0.7294939486510255  0.38780643156464867  1.0000
  Cl  Cl30      1.0  0.647667002121862  0.2294939484163701  0.11219356856415769  1.0000
  Cl  Cl31      1.0  0.6476670022175537  0.27050605181828535  0.6121935685388604  1.0000
  Cl  Cl32      1.0  0.35233299793342954  0.7705060513796859  0.8878064315393513  1.0000
  Cl  Cl33      1.0  0.3657820759065525  0.9595203359598163  0.49250669081964765  1.0000
  Cl  Cl34      1.0  0.6342179240530474  0.45952033572516093  0.007493309309158679  1.0000
  Cl  Cl35      1.0  0.6342179241487391  0.04047966450949445  0.5074933092838614  1.0000
  Cl  Cl36      1.0  0.36578207600224416  0.540479664070895  0.9925066907943504  1.0000
  Cl  Cl37      1.0  0.39089714083088994  0.11775829978900695  0.29628743725677803  1.0000
  Cl  Cl38      1.0  0.60910285912871  0.6177582993504075  0.20371256287202835  1.0000
  Cl  Cl39      1.0  0.6091028592244017  0.8822417006803039  0.703712562846731  1.0000
  Cl  Cl40      1.0  0.3908971409265817  0.3822417004456484  0.7962874372314808  1.0000
  Cl  Cl41      1.0  0.5325165712255454  0.8980467786053105  0.2898064862557852  1.0000
  Cl  Cl42      1.0  0.46748342873405446  0.39804677837065505  0.21019351387302118  1.0000
  Cl  Cl43      1.0  0.46748342798661785  0.10195322119074549  0.7101935138454545  1.0000
  Cl  Cl44      1.0  0.5325165713212371  0.6019532214254009  0.7898064862304879  1.0000
