data_image0
_chemical_formula_structural       H46C38N14O22
_chemical_formula_sum              "H46 C38 N14 O22"
_cell_length_a       9.597270129779803
_cell_length_b       10.76245328179031
_cell_length_c       12.381919288843115
_cell_angle_alpha    109.88395657716073
_cell_angle_beta     96.74033129527601
_cell_angle_gamma    103.32674431580949

_space_group_name_H-M_alt    "P 1"
_space_group_IT_number       1

loop_
  _space_group_symop_operation_xyz
  'x, y, z'

loop_
  _atom_site_type_symbol
  _atom_site_label
  _atom_site_symmetry_multiplicity
  _atom_site_fract_x
  _atom_site_fract_y
  _atom_site_fract_z
  _atom_site_occupancy
  H   H1        1.0  0.19918372975432616  0.5302524849738266  0.19611847779567534  1.0000
  H   H2        1.0  0.8008162707167289  0.46974751525352715  0.8038815221771538  1.0000
  H   H3        1.0  0.6617684160734146  0.08770310564922591  0.943386310144005  1.0000
  H   H4        1.0  0.33823158439937134  0.9122968945788114  0.05661369063681199  1.0000
  H   H5        1.0  0.05230431666239724  0.311198333295086  0.8714310019477691  1.0000
  H   H6        1.0  0.9476956838086579  0.6888016669322677  0.12856899802506  1.0000
  H   H7        1.0  0.9991121274010384  0.40696235828320626  0.22909696686714937  1.0000
  H   H8        1.0  0.0008878730700167365  0.5930376419441475  0.7709030331056798  1.0000
  H   H9        1.0  0.43459693934207566  0.5924097515233756  0.8899729048473677  1.0000
  H   H10       1.0  0.565403060809493  0.40759024767169344  0.11002709479175775  1.0000
  H   H11       1.0  0.8451637889834079  0.9167627254042984  0.00878670442942648  1.0000
  H   H12       1.0  0.15483621148764704  0.08323727482305535  0.9912132955434027  1.0000
  H   H13       1.0  0.6058033937614776  0.8282655525256638  0.2614370876823034  1.0000
  H   H14       1.0  0.39419660639009096  0.17173444666940504  0.738562911956822  1.0000
  H   H15       1.0  0.4085071249736744  0.6488789373757171  0.20588262725140197  1.0000
  H   H16       1.0  0.5914928754991114  0.35112106285232014  0.7941173735294148  1.0000
  H   H17       1.0  0.465937618179034  0.8311536889845219  0.564689392321169  1.0000
  H   H18       1.0  0.5340623822920211  0.16884631124283184  0.4353106076516601  1.0000
  H   H19       1.0  0.27421658096092427  0.7667428997038751  0.5571802958701902  1.0000
  H   H20       1.0  0.7257834195118618  0.23325710052416218  0.44281970491062667  1.0000
  H   H21       1.0  0.33925499911498075  0.8980307982267779  0.5038293844941285  1.0000
  H   H22       1.0  0.6607450010365878  0.10196920096829111  0.49617061514499694  1.0000
  H   H23       1.0  0.3180224178178119  0.1796629697251631  0.517006813972544  1.0000
  H   H24       1.0  0.6819775823337567  0.8203370294699058  0.4829931856665814  1.0000
  H   H25       1.0  0.19563692098177748  0.16103561123398652  0.38647024000881425  1.0000
  H   H26       1.0  0.8043630794892775  0.8389643889933672  0.6135297599640148  1.0000
  H   H27       1.0  0.1229413709862499  0.10902078713295191  0.49620837504417553  1.0000
  H   H28       1.0  0.8770586294865362  0.8909792130950853  0.5037916257366415  1.0000
  H   H29       1.0  0.030343056752202315  0.304164203779414  0.4034966647669581  1.0000
  H   H30       1.0  0.9696569437188528  0.6958357964479396  0.5965033352058711  1.0000
  H   H31       1.0  0.04386865520014108  0.437095889383732  0.5442115141782261  1.0000
  H   H32       1.0  0.9561313452709139  0.5629041108436217  0.45578848579460307  1.0000
  H   H33       1.0  0.9676805798024495  0.2598192860407824  0.5200431416710117  1.0000
  H   H34       1.0  0.03231942066860552  0.7401807141865714  0.4799568583018175  1.0000
  H   H35       1.0  0.3344340249771521  0.3617160511155382  0.7019246940718286  1.0000
  H   H36       1.0  0.6655659744453173  0.6382839491138516  0.2980753058073783  1.0000
  H   H37       1.0  0.14246823402769976  0.28246999386841953  0.6879225132228064  1.0000
  H   H38       1.0  0.8575317664433553  0.7175300063589342  0.3120774867500228  1.0000
  H   H39       1.0  0.20735093645208705  0.4619795428749744  0.7132352929396742  1.0000
  H   H40       1.0  0.792649062650896  0.5380204563221306  0.2867647066058288  1.0000
  H   H41       1.0  0.4196283298085646  0.4170909067387822  0.5484021354776728  1.0000
  H   H42       1.0  0.5803716706624904  0.5829090934885715  0.4515978644951562  1.0000
  H   H43       1.0  0.30611505557101565  0.5300581354310954  0.5622958948051002  1.0000
  H   H44       1.0  0.6938849438514536  0.4699418647982943  0.43770410507410645  1.0000
  H   H45       1.0  0.2935077343448452  0.3995191543947466  0.4208484223957646  1.0000
  H   H46       1.0  0.7064922650776241  0.600480845834643  0.579151577483442  1.0000
  C   C1        1.0  0.7681090776722403  0.16491301874323672  0.9745169315656999  1.0000
  C   C2        1.0  0.23189092279881457  0.835086981484117  0.02548306840712922  1.0000
  C   C3        1.0  0.8549441643764917  0.19230797873973177  0.8982463195534731  1.0000
  C   C4        1.0  0.14505583609456335  0.807692021487622  0.10175368041935609  1.0000
  C   C5        1.0  0.9904744521668484  0.2920991824040754  0.9348537949295982  1.0000
  C   C6        1.0  0.009525548304206422  0.7079008178232783  0.06514620504323095  1.0000
  C   C7        1.0  0.04480955325928478  0.3717917697195431  0.05577684778192153  1.0000
  C   C8        1.0  0.9551904458454291  0.6282082294782454  0.9442231525715694  1.0000
  C   C9        1.0  0.9598367153001214  0.346329977028602  0.13538690321011104  1.0000
  C   C10       1.0  0.040163284122347966  0.6536700232007877  0.8646130966690957  1.0000
  C   C11       1.0  0.8254968876747142  0.24517990451401864  0.09344150657256493  1.0000
  C   C12       1.0  0.17450311279634081  0.7548200957133351  0.9065584934002643  1.0000
  C   C13       1.0  0.2707433379334082  0.5210893572133958  0.03928191648477206  1.0000
  C   C14       1.0  0.7292566625393778  0.4789106430146414  0.9607180842960448  1.0000
  C   C15       1.0  0.505394711945544  0.6978082300465243  0.07906565347968528  1.0000
  C   C16       1.0  0.49460528747692545  0.3021917701828656  0.9209343463995215  1.0000
  C   C17       1.0  0.5174151501329022  0.6736105490402425  0.9619675604588713  1.0000
  C   C18       1.0  0.48258484928956724  0.32638945118914714  0.03803243942033541  1.0000
  C   C19       1.0  0.6389423430506329  0.7536549292181497  0.9404017876022047  1.0000
  C   C20       1.0  0.3610576563718364  0.24634507101124  0.05959821227700202  1.0000
  C   C21       1.0  0.7510428996194725  0.8570973222823413  0.028329040712459425  1.0000
  C   C22       1.0  0.2489570994835106  0.14290267691476383  0.9716709588330438  1.0000
  C   C23       1.0  0.7343967867190568  0.8793686559444652  0.14307180509652245  1.0000
  C   C24       1.0  0.26560321375199825  0.1206313442828885  0.8569281948763067  1.0000
  C   C25       1.0  0.6152411857208238  0.8046765643916112  0.17031799440364767  1.0000
  C   C26       1.0  0.38475881475023116  0.1953234358357425  0.8296820055691815  1.0000
  C   C27       1.0  0.3388739141749915  0.69978188808191  0.38902347637907414  1.0000
  C   C28       1.0  0.6611260859783079  0.3002181111138424  0.6109765240680392  1.0000
  C   C29       1.0  0.3555769212725092  0.80340174539072  0.5116768394265591  1.0000
  C   C30       1.0  0.6444230791985458  0.1965982548366337  0.4883231605462701  1.0000
  C   C31       1.0  0.20965901212034285  0.18237877506346437  0.48051835653498715  1.0000
  C   C32       1.0  0.7903409880312258  0.8176212241316047  0.5194816431041382  1.0000
  C   C33       1.0  0.04909629295479966  0.332138757173753  0.49868191851319044  1.0000
  C   C34       1.0  0.9509037075162553  0.6678612430536007  0.5013180814596387  1.0000
  C   C35       1.0  0.22254245596948163  0.3604048023407357  0.6712258292728368  1.0000
  C   C36       1.0  0.7774575434529877  0.6395951978886539  0.32877417060637  1.0000
  C   C37       1.0  0.31279693526489916  0.4258576582717603  0.5158527240775646  1.0000
  C   C38       1.0  0.6872030641575703  0.5741423419576295  0.48414727580164224  1.0000
  N   N1        1.0  0.1767850385661227  0.4741898502000041  0.10280914760421739  1.0000
  N   N2        1.0  0.8232149615854459  0.5258101489950648  0.897190852034908  1.0000
  N   N3        1.0  0.7994490029001448  0.11340440500001371  0.7709295889718393  1.0000
  N   N4        1.0  0.20055099725315478  0.8865955941957386  0.22907041147527385  1.0000
  N   N5        1.0  0.7382932025920758  0.22466769697977537  0.1788582471537313  1.0000
  N   N6        1.0  0.2617067968303936  0.7753323032496143  0.8211417527254755  1.0000
  N   N7        1.0  0.39315260862789325  0.6239557467961836  0.1129097995969697  1.0000
  N   N8        1.0  0.6068473915236754  0.37604425239888534  0.8870902000421557  1.0000
  N   N9        1.0  0.6507078694057803  0.7257436836923294  0.8175843013645452  1.0000
  N   N10       1.0  0.34929213001841997  0.2742563165377437  0.18241569932264934  1.0000
  N   N11       1.0  0.8488765761766545  0.98736559340713  0.24024888901148364  1.0000
  N   N12       1.0  0.1511234242944006  0.012634406820223784  0.7597511109613454  1.0000
  N   N13       1.0  0.19823988514559804  0.3251695524181598  0.5413367416091506  1.0000
  N   N14       1.0  0.8017601150059707  0.6748304467769092  0.4586632580299749  1.0000
  O   O1        1.0  0.24789348620270815  0.47646279973363886  0.9302614847598789  1.0000
  O   O2        1.0  0.7521065132197612  0.5235372004957509  0.06973851511932791  1.0000
  O   O3        1.0  0.8862845883953596  0.12244531201240216  0.705233493656728  1.0000
  O   O4        1.0  0.11371541207569534  0.8775546882149516  0.2947665063161011  1.0000
  O   O5        1.0  0.6693159588586329  0.04271049548875956  0.7368602844959184  1.0000
  O   O6        1.0  0.3306840416124221  0.9572895047385941  0.2631397154769107  1.0000
  O   O7        1.0  0.6242327396774675  0.12710547374778491  0.14329742405806276  1.0000
  O   O8        1.0  0.3757672597450019  0.8728945264816047  0.8567025758211441  1.0000
  O   O9        1.0  0.7836472172009635  0.30714396515249504  0.2828925565688338  1.0000
  O   O10       1.0  0.2163527832700915  0.6928560350748587  0.7171074434039953  1.0000
  O   O11       1.0  0.7654686450790323  0.7890720532871656  0.7993862912965565  1.0000
  O   O12       1.0  0.23453135539202266  0.21092794694018813  0.20061370867627265  1.0000
  O   O13       1.0  0.5462056035210215  0.6402362694213953  0.7390045266936774  1.0000
  O   O14       1.0  0.45379439558196144  0.3597637297757095  0.26099547285182567  1.0000
  O   O15       1.0  0.9455024340713937  0.06500923084036495  0.21488033807737184  1.0000
  O   O16       1.0  0.05449756608017501  0.9349907683547041  0.7851196615617537  1.0000
  O   O17       1.0  0.8431374016407576  0.9950861678388309  0.34174658383395234  1.0000
  O   O18       1.0  0.15686259778171174  0.004913832390558902  0.6582534160452544  1.0000
  O   O19       1.0  0.21259932974429172  0.6167731099508884  0.3339388111624194  1.0000
  O   O20       1.0  0.7874006707267632  0.38322689027646517  0.6660611888104098  1.0000
  O   O21       1.0  0.4535386341556736  0.7039150909099896  0.3450907165369572  1.0000
  O   O22       1.0  0.5464613663171124  0.29608490931804765  0.6549092842438596  1.0000
