data_image0
_chemical_formula_structural       H12C18N2Br4
_chemical_formula_sum              "H12 C18 N2 Br4"
_cell_length_a       3.8661731226088736
_cell_length_b       9.656953033134775
_cell_length_c       12.308817121227948
_cell_angle_alpha    75.91430550350445
_cell_angle_beta     85.67231253453964
_cell_angle_gamma    77.46642917817195

_space_group_name_H-M_alt    "P 1"
_space_group_IT_number       1

loop_
  _space_group_symop_operation_xyz
  'x, y, z'

loop_
  _atom_site_type_symbol
  _atom_site_label
  _atom_site_symmetry_multiplicity
  _atom_site_fract_x
  _atom_site_fract_y
  _atom_site_fract_z
  _atom_site_occupancy
  H   H1        1.0  0.683863901949482  0.10955881134594993  0.6450954868945528  1.0000
  H   H2        1.0  0.3161360963423773  0.8904411883465362  0.354904512537216  1.0000
  H   H3        1.0  0.2696600666325485  0.960122984368903  0.10496703815294613  1.0000
  H   H4        1.0  0.7303399336193575  0.03987701611628272  0.8950329621237241  1.0000
  H   H5        1.0  0.25549400474856554  0.8206142051139207  0.9597627224106252  1.0000
  H   H6        1.0  0.7445059955883446  0.17938579562565765  0.04023727702822417  1.0000
  H   H7        1.0  0.8887731183275457  0.49171048248377086  0.22091663699708242  1.0000
  H   H8        1.0  0.11122688247130742  0.508289516940698  0.7790833632795086  1.0000
  H   H9        1.0  0.9141276413008557  0.6452730947133434  0.35273496839824536  1.0000
  H   H10       1.0  0.08587235644405632  0.3547269060398599  0.6472650310336026  1.0000
  H   H11       1.0  0.18879057527261148  0.6029923529610202  0.9115561862109748  1.0000
  H   H12       1.0  0.8112094255262416  0.39700764646344866  0.0884438140656162  1.0000
  C   C1        1.0  0.5977575630433098  0.06241873368178744  0.5817255912474563  1.0000
  C   C2        1.0  0.4022424352485493  0.937581266010699  0.41827440818431244  1.0000
  C   C3        1.0  0.5304269783722516  0.1457737163399196  0.47300143295712793  1.0000
  C   C4        1.0  0.4695730218796543  0.8542262841452662  0.5269985673195422  1.0000
  C   C5        1.0  0.4343640645732909  0.0830881467042547  0.3913729053123197  1.0000
  C   C6        1.0  0.565635933086617  0.9169118537945561  0.6086270949573489  1.0000
  C   C7        1.0  0.1828865437256065  0.8561228366461637  0.12718707939021412  1.0000
  C   C8        1.0  0.8171134566113036  0.1438771640934148  0.8728129200486351  1.0000
  C   C9        1.0  0.17712806848327456  0.7778284117615756  0.046428862561102895  1.0000
  C   C10       1.0  0.8228719317686314  0.22217158872361017  0.9535711377155673  1.0000
  C   C11       1.0  0.0706168301061652  0.6429468980853673  0.07714244659322979  1.0000
  C   C12       1.0  0.9293831676387471  0.3570531026678359  0.9228575528386179  1.0000
  C   C13       1.0  0.9725800358267176  0.5952383353544497  0.19023094464017035  1.0000
  C   C14       1.0  0.027419964972135245  0.40476166407001934  0.8097690556364207  1.0000
  C   C15       1.0  0.9872814338812549  0.6813846729893939  0.26449702952906745  1.0000
  C   C16       1.0  0.012718566370650995  0.31861532749579186  0.7355029707476026  1.0000
  C   C17       1.0  0.06830039888586764  0.5605184485873053  0.992701397152871  1.0000
  C   C18       1.0  0.9316995993209873  0.43948155085078844  0.007298603116718598  1.0000
  N   N1        1.0  0.0909067403033847  0.810029500572542  0.23512854213692294  1.0000
  N   N2        1.0  0.9090932599485213  0.18997049991264384  0.7648714581397472  1.0000
  Br  Br1       1.0  0.5688038347513512  0.3443937528023624  0.44155579944441153  1.0000
  Br  Br2       1.0  0.43119616550055456  0.6556062476828235  0.5584442008322585  1.0000
  Br  Br3       1.0  0.3439700909357466  0.19072636694173417  0.24173901209431808  1.0000
  Br  Br4       1.0  0.6560299099481106  0.8092736327371273  0.7582609873444521  1.0000
