data_image0
_chemical_formula_structural       H10C16N4Br4
_chemical_formula_sum              "H10 C16 N4 Br4"
_cell_length_a       3.842568058169042
_cell_length_b       9.600165579513929
_cell_length_c       12.100628769277973
_cell_angle_alpha    75.80284573709282
_cell_angle_beta     86.85533595875609
_cell_angle_gamma    79.85550732798718

_space_group_name_H-M_alt    "P 1"
_space_group_IT_number       1

loop_
  _space_group_symop_operation_xyz
  'x, y, z'

loop_
  _atom_site_type_symbol
  _atom_site_label
  _atom_site_symmetry_multiplicity
  _atom_site_fract_x
  _atom_site_fract_y
  _atom_site_fract_z
  _atom_site_occupancy
  H   H1        1.0  0.7026300174015178  0.10879006209889212  0.647528357086954  1.0000
  H   H2        1.0  0.2973699833612069  0.8912099374531701  0.35247164349025867  1.0000
  H   H3        1.0  0.09462970100399534  0.3619930714293424  0.6513953287890722  1.0000
  H   H4        1.0  0.9053702993108094  0.638006929180995  0.34860467178778726  1.0000
  H   H5        1.0  0.15362873707805486  0.5141959764702182  0.7889174618095741  1.0000
  H   H6        1.0  0.8463712632367499  0.4858040241401193  0.21108253876728525  1.0000
  H   H7        1.0  0.7197347793797698  0.046260749025451915  0.9034927856445675  1.0000
  H   H8        1.0  0.28026521838536106  0.9537392518551376  0.09650721407230242  1.0000
  H   H9        1.0  0.7676352289029245  0.18457630096721678  0.05360284911572699  1.0000
  H   H10       1.0  0.23236477185980026  0.8154236985848454  0.9463971514614856  1.0000
  C   C1        1.0  0.6099101170667175  0.061516085568126655  0.583133006576054  1.0000
  C   C2        1.0  0.3900898836960074  0.9384839139839355  0.4168669940011587  1.0000
  C   C3        1.0  0.518074582780338  0.14778540984296765  0.47477585630711366  1.0000
  C   C4        1.0  0.48192541543271256  0.8522145899793466  0.5252241434101096  1.0000
  C   C5        1.0  0.4089565337098421  0.08674388868471636  0.39131918764494295  1.0000
  C   C6        1.0  0.5910434671083545  0.9132561111280986  0.6086808120798004  1.0000
  C   C7        1.0  0.9576860874313926  0.3607596626039863  0.9309978579791746  1.0000
  C   C8        1.0  0.042313913331331963  0.6392403369480759  0.06900214259803815  1.0000
  C   C9        1.0  0.020954085361250877  0.32670729101611606  0.7411489944394004  1.0000
  C   C10       1.0  0.9790459128517999  0.6732927088061981  0.2588510052778228  1.0000
  C   C11       1.0  0.052751702535535024  0.4119476323792137  0.8166659787474226  1.0000
  C   C12       1.0  0.9472482956220439  0.5880523671823477  0.1833340218222697  1.0000
  C   C13       1.0  0.814852236267416  0.1505317130793693  0.8816850522821935  1.0000
  C   C14       1.0  0.18514776194563468  0.8494682867429451  0.11831494743502952  1.0000
  C   C15       1.0  0.8402523745042891  0.2262861010850594  0.9647711737999896  1.0000
  C   C16       1.0  0.15974762370876155  0.7737138987372549  0.035228825917233635  1.0000
  N   N1        1.0  0.9032241649719358  0.19851530451489832  0.7718398609803437  1.0000
  N   N2        1.0  0.09677583539834071  0.801484696356192  0.22816013874404645  1.0000
  N   N3        1.0  0.9867782168309671  0.4334821197187345  0.017810593051887997  1.0000
  N   N4        1.0  0.013221783987229356  0.5665178800940806  0.9821894066728555  1.0000
  Br  Br1       1.0  0.5456214799936243  0.34928925558270413  0.44563030941571474  1.0000
  Br  Br2       1.0  0.45437852037665216  0.6507107452883862  0.5543696903086754  1.0000
  Br  Br3       1.0  0.27443409066551677  0.2010687516941266  0.24351844936529973  1.0000
  Br  Br4       1.0  0.7255659100972077  0.7989312478579356  0.756481551211913  1.0000
