data_image0
_chemical_formula_structural       H34C16N4O8I2
_chemical_formula_sum              "H34 C16 N4 O8 I2"
_cell_length_a       5.199091782862192
_cell_length_b       12.089041050603742
_cell_length_c       9.807913878684415
_cell_angle_alpha    90.0
_cell_angle_beta     91.9599780699639
_cell_angle_gamma    90.0

_space_group_name_H-M_alt    "P 1"
_space_group_IT_number       1

loop_
  _space_group_symop_operation_xyz
  'x, y, z'

loop_
  _atom_site_type_symbol
  _atom_site_label
  _atom_site_symmetry_multiplicity
  _atom_site_fract_x
  _atom_site_fract_y
  _atom_site_fract_z
  _atom_site_occupancy
  H   H1        1.0  0.7460543756005116  0.5567554838986889  0.23786584321954837  1.0000
  H   H2        1.0  0.2539456241816044  0.05675548351006173  0.7621341566425035  1.0000
  H   H3        1.0  0.9632487725242056  0.8173309635263869  0.132875869291529  1.0000
  H   H4        1.0  0.036751227321837374  0.3173309639649552  0.8671241315907039  1.0000
  H   H5        1.0  0.962688926865025  0.7475809803415842  0.9748035135887325  1.0000
  H   H6        1.0  0.03731107291709084  0.24758098078015253  0.025196486273319458  1.0000
  H   H7        1.0  0.5271801417269292  0.8306857423979448  0.9123639422949297  1.0000
  H   H8        1.0  0.47281985805518667  0.3306857420093177  0.08763605756712219  1.0000
  H   H9        1.0  0.5298035687133726  0.902554700106266  0.06975635621660858  1.0000
  H   H10       1.0  0.47019643113267034  0.402554699717639  0.9302436446656246  1.0000
  H   H11       1.0  0.904850984591481  0.929999625523525  0.8482989254827821  1.0000
  H   H12       1.0  0.09514901519063504  0.4299996259620933  0.15170107437926975  1.0000
  H   H13       1.0  0.9309852420425951  0.9909338168226116  0.004106337052670651  1.0000
  H   H14       1.0  0.06901475773952073  0.49093381726117996  0.9958936628093811  1.0000
  H   H15       1.0  0.6833666985456677  0.02541768687142098  0.900586109356553  1.0000
  H   H16       1.0  0.3166333012364482  0.5254176864328527  0.09941389050549888  1.0000
  H   H17       1.0  0.3648464273991602  0.2803297478943339  0.32480320860752865  1.0000
  H   H18       1.0  0.6351535743703596  0.780329748282961  0.6751967922757095  1.0000
  H   H19       1.0  0.5109880586967422  0.3971625003093373  0.5574951083028477  1.0000
  H   H20       1.0  0.48901194108537366  0.897162499870769  0.4425048915592042  1.0000
  H   H21       1.0  0.33468439183600035  0.2713097404724421  0.5662639216407318  1.0000
  H   H22       1.0  0.6653156079461157  0.7713097408610693  0.4337360782213201  1.0000
  H   H23       1.0  0.9588276988983068  0.10679078883064311  0.5167519263469533  1.0000
  H   H24       1.0  0.04117230088380927  0.6067907892192702  0.4832480735150986  1.0000
  H   H25       1.0  0.629046199386974  0.08112442549370133  0.5513248926312756  1.0000
  H   H26       1.0  0.37095380231861874  0.5811244250551331  0.4486751072317814  1.0000
  H   H27       1.0  0.7227582491714852  0.23146871602857635  0.7097358287092782  1.0000
  H   H28       1.0  0.27724175067455775  0.7314687164172035  0.29026417217295486  1.0000
  H   H29       1.0  0.9206080210643433  0.3008909048098848  0.5933109377009276  1.0000
  H   H30       1.0  0.07939198064124958  0.800890905198512  0.4066890621621294  1.0000
  H   H31       1.0  0.8507333847986596  0.1889662521979701  0.31616779781298104  1.0000
  H   H32       1.0  0.14926661498345634  0.6889662525865972  0.6838322020490708  1.0000
  H   H33       1.0  0.5690797083710823  0.12051721670076046  0.3258641998434637  1.0000
  H   H34       1.0  0.4309202914110336  0.6205172162621921  0.6741358000185882  1.0000
  C   C1        1.0  0.698281523953435  0.68321832107498  0.11209383272246186  1.0000
  C   C2        1.0  0.30171847582868094  0.18321832151354828  0.8879061671395899  1.0000
  C   C3        1.0  0.8360574681900168  0.7808741826985982  0.05294462575177711  1.0000
  C   C4        1.0  0.16394253159209915  0.28087418313716656  0.9470553741102749  1.0000
  C   C5        1.0  0.6527621788166645  0.8669855761203297  0.9921645974720795  1.0000
  C   C6        1.0  0.34723782096545136  0.36698557573170254  0.007835402389972213  1.0000
  C   C7        1.0  0.7107803785344037  0.3772798058099257  0.313280081252222  1.0000
  C   C8        1.0  0.2892196212477123  0.877279806198553  0.6867199186098298  1.0000
  C   C9        1.0  0.5500232976153724  0.28796093051782184  0.38157506498351657  1.0000
  C   C10       1.0  0.44997670223067066  0.7879609300792535  0.6184249358987164  1.0000
  C   C11       1.0  0.5157561034147173  0.30860855334871085  0.5342579013153685  1.0000
  C   C12       1.0  0.48424389636739873  0.808608553737338  0.46574209854668336  1.0000
  C   C13       1.0  0.7666579617750425  0.1437495366858079  0.5184632681712433  1.0000
  C   C14       1.0  0.23334203800707337  0.6437495362472395  0.4815367316908086  1.0000
  C   C15       1.0  0.7470710934449826  0.24957097319553923  0.6016958328324584  1.0000
  C   C16       1.0  0.25292890633713333  0.7495709735841665  0.3983041670295934  1.0000
  N   N1        1.0  0.8006090135569635  0.9590667317173989  0.9311996318419831  1.0000
  N   N2        1.0  0.1993909862251524  0.45906673215596716  0.06880036802006886  1.0000
  N   N3        1.0  0.6888319857240697  0.1790509156962371  0.37511284362947156  1.0000
  N   N4        1.0  0.31116801412197326  0.6790509160848642  0.6248871572527614  1.0000
  O   O1        1.0  0.8506160630702508  0.6215398275634733  0.19182442983518644  1.0000
  O   O2        1.0  0.14938393671186517  0.12153982800204169  0.8081755700268654  1.0000
  O   O3        1.0  0.4671298850089721  0.6633336834934082  0.08791268655457003  1.0000
  O   O4        1.0  0.5328701166966205  0.16333368310478097  0.9120873133084869  1.0000
  O   O5        1.0  0.6056258005048567  0.47239024717471684  0.3075792865182474  1.0000
  O   O6        1.0  0.39437419927725925  0.9723902467361485  0.6924207133438044  1.0000
  O   O7        1.0  0.9258088442444941  0.350294016065775  0.26685010260019193  1.0000
  O   O8        1.0  0.07419115553762184  0.8502940156272066  0.73314989726186  1.0000
  I   I1        1.0  0.18595631156644363  0.03806740485648505  0.22322031437011028  1.0000
  I   I2        1.0  0.8140436882156724  0.5380674052451122  0.7767796854919417  1.0000
