data_image0
_chemical_formula_structural       H31C22N3O13
_chemical_formula_sum              "H31 C22 N3 O13"
_cell_length_a       5.96899034921666
_cell_length_b       9.622944208338788
_cell_length_c       10.863150981530824
_cell_angle_alpha    100.1967574575321
_cell_angle_beta     95.60018209382025
_cell_angle_gamma    91.78667450887029

_space_group_name_H-M_alt    "P 1"
_space_group_IT_number       1

loop_
  _space_group_symop_operation_xyz
  'x, y, z'

loop_
  _atom_site_type_symbol
  _atom_site_label
  _atom_site_symmetry_multiplicity
  _atom_site_fract_x
  _atom_site_fract_y
  _atom_site_fract_z
  _atom_site_occupancy
  H   H1        1.0  0.19734261977405881  0.28010390815117564  0.46165241940733753  1.0000
  H   H2        1.0  0.5644778512814441  0.33502584036450295  0.5569552602865365  1.0000
  H   H3        1.0  0.06477574243549937  0.24590562659767518  0.6325529901424324  1.0000
  H   H4        1.0  0.4411569333655063  0.07217001711818721  0.6421014337371891  1.0000
  H   H5        1.0  0.7165470083973253  0.20175432333948792  0.8005743030642786  1.0000
  H   H6        1.0  0.5247678850194146  0.46179195681907115  0.881022135387502  1.0000
  H   H7        1.0  0.6784872252988084  0.5613824730815524  0.7159243456751844  1.0000
  H   H8        1.0  0.8741350877677845  0.44636981955758637  0.7743674547472249  1.0000
  H   H9        1.0  0.003083096401356625  0.04076077957366846  0.9664962926994287  1.0000
  H   H10       1.0  0.05595406226634282  0.22629315252094517  0.979466173147105  1.0000
  H   H11       1.0  0.20202068778310434  0.13163070710925745  0.08911113091857388  1.0000
  H   H12       1.0  0.5727405596889601  0.9549992753355506  0.8475437558604529  1.0000
  H   H13       1.0  0.32697271848461995  0.8748752425383117  0.8907430755397721  1.0000
  H   H14       1.0  0.5248554799603542  0.974529586265484  0.009771978557327492  1.0000
  H   H15       1.0  0.8774609964037746  0.3517599062230229  0.48245078027819366  1.0000
  H   H16       1.0  0.6654520896623167  0.7684639192532767  0.28572738418667337  1.0000
  H   H17       1.0  0.7864299751148991  0.5684805446890124  0.45196055576740773  1.0000
  H   H18       1.0  0.10425187708120448  0.5754298887522137  0.34583664586337587  1.0000
  H   H19       1.0  0.06331351427290664  0.3813663946809673  0.17132458867613223  1.0000
  H   H20       1.0  0.607325270187772  0.30496342368208335  0.13934469341414135  1.0000
  H   H21       1.0  0.6586932583653164  0.20720917320791735  0.33948280661579  1.0000
  H   H22       1.0  0.8884466390351353  0.17112106259651644  0.24759437343852583  1.0000
  H   H23       1.0  0.2965974072550895  0.5524227370316909  0.10962009903902234  1.0000
  H   H24       1.0  0.28656600817378647  0.7174548195829408  0.05797151974837519  1.0000
  H   H25       1.0  0.19890967598683218  0.5583053376002641  0.9500568332287845  1.0000
  H   H26       1.0  0.8950343356067305  0.8324403460704272  0.035153179760297186  1.0000
  H   H27       1.0  0.6495118289174998  0.7202593468456797  0.02708180554254846  1.0000
  H   H28       1.0  0.834273808887189  0.6918878365344608  0.9060399120530278  1.0000
  H   H29       1.0  0.04283664303507222  0.9926654331772874  0.4506921337252813  1.0000
  H   H30       1.0  0.18327772651697624  0.6577033768619054  0.6591054334333106  1.0000
  H   H31       1.0  0.4883303928903841  0.5845644789269844  0.5301673280571997  1.0000
  C   C1        1.0  0.24893114159372234  0.26179717577941664  0.6411421177571301  1.0000
  C   C2        1.0  0.36798037035035003  0.1534120180576973  0.7083094243561633  1.0000
  C   C3        1.0  0.5453261496304505  0.23938097889977675  0.807787386880792  1.0000
  C   C4        1.0  0.5254726674050794  0.3928439623178661  0.7889780082964316  1.0000
  C   C5        1.0  0.7090713911790619  0.4499034680423915  0.7205609649918087  1.0000
  C   C6        1.0  0.3157306326510263  0.1007299957615421  0.9037221146928425  1.0000
  C   C7        1.0  0.13316848816219443  0.12695773523081416  0.9911214258180212  1.0000
  C   C8        1.0  0.44404252049922033  0.9682371962027347  0.9137160181816769  1.0000
  C   C9        1.0  0.7391753325063584  0.581860313348043  0.3544053042399375  1.0000
  C   C10       1.0  0.9512395030317875  0.5770573452381298  0.2819430576932321  1.0000
  C   C11       1.0  0.9113307627482395  0.44223347400310664  0.18146889518481926  1.0000
  C   C12       1.0  0.7176295098737132  0.3597690401988377  0.22159937042221262  1.0000
  C   C13       1.0  0.8022547607963636  0.25556726291265003  0.3034639077038138  1.0000
  C   C14       1.0  0.9600078082283912  0.629776735084419  0.08140949132743287  1.0000
  C   C15       1.0  0.20070710167872444  0.6130426704265184  0.047744193315510546  1.0000
  C   C16       1.0  0.8256439167949241  0.7233927157210498  0.0072025117616619175  1.0000
  C   C17       1.0  0.4586889070730321  0.752726411442641  0.42134237963913046  1.0000
  C   C18       1.0  0.32500338853833954  0.8695955694587879  0.40110047557123796  1.0000
  C   C19       1.0  0.14528218560053746  0.9065034024985056  0.47074447288338644  1.0000
  C   C20       1.0  0.09747304962996838  0.8322534489581066  0.5638312792982393  1.0000
  C   C21       1.0  0.22505228530023735  0.7174455472753812  0.5875660287235761  1.0000
  C   C22       1.0  0.39792625875282717  0.6777879194183934  0.5162927618955109  1.0000
  N   N1        1.0  0.6291000377844596  0.7114878005650435  0.3530962270672658  1.0000
  N   N2        1.0  0.3604007688164263  0.9491766348988532  0.30343123072257505  1.0000
  N   N3        1.0  0.9087329347367074  0.8716161774660132  0.6343492633449348  1.0000
  O   O1        1.0  0.3040613992416124  0.3968019495668375  0.7202484007613413  1.0000
  O   O2        1.0  0.3250858920496504  0.254509316963926  0.5203119249481306  1.0000
  O   O3        1.0  0.2112928469935331  0.09361674462196992  0.7777532168827702  1.0000
  O   O4        1.0  0.467709667420286  0.22384240355681587  0.9258662254267044  1.0000
  O   O5        1.0  0.7205345746159533  0.370466393378243  0.5966950128060095  1.0000
  O   O6        1.0  0.5875112466354075  0.4657428523267783  0.2907300599631262  1.0000
  O   O7        1.0  0.964645693618309  0.6908834915133584  0.21431946921587383  1.0000
  O   O8        1.0  0.8420653144544946  0.49534806928865543  0.06908714413211986  1.0000
  O   O9        1.0  0.9598693695427774  0.326059894637173  0.40603898371071495  1.0000
  O   O10       1.0  0.5312513937463618  0.9272478531184485  0.24468748150800954  1.0000
  O   O11       1.0  0.2218033062492903  0.03708643778608246  0.2801739122630057  1.0000
  O   O12       1.0  0.7930993221420085  0.9693319834029738  0.606935756089988  1.0000
  O   O13       1.0  0.8691066934896251  0.8040234739397615  0.7184261764687012  1.0000
