data_image0
_chemical_formula_structural       H104C68N24O16
_chemical_formula_sum              "H104 C68 N24 O16"
_cell_length_a       29.258458918079764
_cell_length_b       4.553803250085472
_cell_length_c       13.88420837106013
_cell_angle_alpha    90.0
_cell_angle_beta     90.0
_cell_angle_gamma    90.0

_space_group_name_H-M_alt    "P 1"
_space_group_IT_number       1

loop_
  _space_group_symop_operation_xyz
  'x, y, z'

loop_
  _atom_site_type_symbol
  _atom_site_label
  _atom_site_symmetry_multiplicity
  _atom_site_fract_x
  _atom_site_fract_y
  _atom_site_fract_z
  _atom_site_occupancy
  H   H1        1.0  0.25007727920620804  0.20186039438193704  0.4865402426601729  1.0000
  H   H2        1.0  0.7499227208594221  0.7981396055992936  0.986540242261874  1.0000
  H   H3        1.0  0.24992272082660705  0.20186039438193704  0.986540242261874  1.0000
  H   H4        1.0  0.7500772792390231  0.7981396055992936  0.4865402426601729  1.0000
  H   H5        1.0  0.4901190811228531  0.3162860077393477  0.24864961024323773  1.0000
  H   H6        1.0  0.509880918942777  0.683713992241883  0.7486496098449388  1.0000
  H   H7        1.0  0.009880918909961978  0.3162860077393477  0.7486496098449388  1.0000
  H   H8        1.0  0.9901190811556682  0.683713992241883  0.24864961024323773  1.0000
  H   H9        1.0  0.33293133439713324  0.8844844822675203  0.4455346999036485  1.0000
  H   H10       1.0  0.6670686656684969  0.11551551771371033  0.9455346995053496  1.0000
  H   H11       1.0  0.1670686656356818  0.8844844822675203  0.9455346995053496  1.0000
  H   H12       1.0  0.8329313344299483  0.11551551771371033  0.4455346999036485  1.0000
  H   H13       1.0  0.3238468716527283  0.8921810576519185  0.3192432749164769  1.0000
  H   H14       1.0  0.6761531284129019  0.10781894232931222  0.8192432752384208  1.0000
  H   H15       1.0  0.1761531283800868  0.8921810576519185  0.8192432752384208  1.0000
  H   H16       1.0  0.8238468716855434  0.10781894232931222  0.3192432749164769  1.0000
  H   H17       1.0  0.3714396664030879  0.43735184429907437  0.3006209139514162  1.0000
  H   H18       1.0  0.6285603333207607  0.5626481556821563  0.8006209135531173  1.0000
  H   H19       1.0  0.12856033362972716  0.43735184429907437  0.8006209135531173  1.0000
  H   H20       1.0  0.871439666435903  0.5626481556821563  0.3006209139514162  1.0000
  H   H21       1.0  0.37753395764717723  0.41383097742851077  0.4270015712496342  1.0000
  H   H22       1.0  0.6224660424184529  0.58616902255272  0.9270015708513353  1.0000
  H   H23       1.0  0.12246604238563785  0.41383097742851077  0.9270015708513353  1.0000
  H   H24       1.0  0.8775339576799923  0.58616902255272  0.4270015712496342  1.0000
  H   H25       1.0  0.4124427931692305  0.9238652196756711  0.3015493925261738  1.0000
  H   H26       1.0  0.5875572068963997  0.07613478030555945  0.8015493928481177  1.0000
  H   H27       1.0  0.08755720686358455  0.9238652196756711  0.8015493928481177  1.0000
  H   H28       1.0  0.9124427932020456  0.07613478030555945  0.3015493925261738  1.0000
  H   H29       1.0  0.42063963978618624  0.8912405646695043  0.4280161245913545  1.0000
  H   H30       1.0  0.5793603602794439  0.10875943531172633  0.9280161249132983  1.0000
  H   H31       1.0  0.07936036024662883  0.8912405646695043  0.9280161249132983  1.0000
  H   H32       1.0  0.9206396398190012  0.10875943531172633  0.4280161245913545  1.0000
  H   H33       1.0  0.5992890049026129  0.21529012259842337  0.39660855576597365  1.0000
  H   H34       1.0  0.4007109948212358  0.7847098773828073  0.8966085553676747  1.0000
  H   H35       1.0  0.9007109948540509  0.21529012259842337  0.8966085553676747  1.0000
  H   H36       1.0  0.09928900486979779  0.7847098773828073  0.39660855576597365  1.0000
  H   H37       1.0  0.5429957748110501  0.362109346724422  0.3764596562015515  1.0000
  H   H38       1.0  0.45700422525458  0.6378906532568087  0.8764596565234953  1.0000
  H   H39       1.0  0.9570042249456135  0.362109346724422  0.8764596565234953  1.0000
  H   H40       1.0  0.04299577477823504  0.6378906532568087  0.3764596562015515  1.0000
  H   H41       1.0  0.4492283157086602  0.9912507792064306  0.12961637940777962  1.0000
  H   H42       1.0  0.5507716843569699  0.008749220774800094  0.6296163797297234  1.0000
  H   H43       1.0  0.05077168432415489  0.9912507792064306  0.6296163797297234  1.0000
  H   H44       1.0  0.9492283157414753  0.008749220774800094  0.12961637940777962  1.0000
  H   H45       1.0  0.47668099195004837  0.8359590458653543  0.025802503853710603  1.0000
  H   H46       1.0  0.5233190081155817  0.16404095411587646  0.5258025041756544  1.0000
  H   H47       1.0  0.02331900808276672  0.8359590458653543  0.5258025041756544  1.0000
  H   H48       1.0  0.9766809916410819  0.16404095411587646  0.025802503853710603  1.0000
  H   H49       1.0  0.481737883716435  0.21504709497091679  0.050314037453952486  1.0000
  H   H50       1.0  0.5182621160074137  0.7849529050103139  0.5503140370556535  1.0000
  H   H51       1.0  0.018262116316380056  0.21504709497091679  0.5503140370556535  1.0000
  H   H52       1.0  0.9817378837492501  0.7849529050103139  0.050314037453952486  1.0000
  H   H53       1.0  0.5506966192277316  0.6137224110302842  0.04920545714539977  1.0000
  H   H54       1.0  0.4493033808378985  0.3862775889509465  0.5492054567471009  1.0000
  H   H55       1.0  0.9493033808707136  0.6137224110302842  0.5492054567471009  1.0000
  H   H56       1.0  0.05069661919491655  0.3862775889509465  0.04920545714539977  1.0000
  H   H57       1.0  0.656585446410135  0.6062637181235667  0.09924924368552838  1.0000
  H   H58       1.0  0.3434145533137135  0.39373628185766407  0.5992492432872295  1.0000
  H   H59       1.0  0.8434145533465286  0.6062637181235667  0.5992492432872295  1.0000
  H   H60       1.0  0.15658544671910155  0.39373628185766407  0.09924924368552838  1.0000
  H   H61       1.0  0.6174448869840079  0.3135504218310706  0.10955802803785307  1.0000
  H   H62       1.0  0.38255511308162216  0.6864495781501601  0.6095580283597969  1.0000
  H   H63       1.0  0.8825551131144372  0.3135504218310706  0.6095580283597969  1.0000
  H   H64       1.0  0.11744488695119291  0.6864495781501601  0.10955802803785307  1.0000
  H   H65       1.0  0.6491087710113217  0.42958688431769254  0.2126491299391644  1.0000
  H   H66       1.0  0.3508912290543084  0.5704131156635381  0.7126491295408655  1.0000
  H   H67       1.0  0.8508912290871236  0.42958688431769254  0.7126491295408655  1.0000
  H   H68       1.0  0.14910877097850664  0.5704131156635381  0.2126491299391644  1.0000
  H   H69       1.0  0.29919062362477006  0.8892819271284923  0.610921011361366  1.0000
  H   H70       1.0  0.70080937644086  0.11071807285273837  0.110921011759665  1.0000
  H   H71       1.0  0.200809376408045  0.8892819271284923  0.110921011759665  1.0000
  H   H72       1.0  0.7991906236575852  0.11071807285273837  0.610921011361366  1.0000
  H   H73       1.0  0.2658501813707451  0.8399106966090841  0.7182031811611749  1.0000
  H   H74       1.0  0.734149818694885  0.16008930337214655  0.2182031808392311  1.0000
  H   H75       1.0  0.23414981866206996  0.8399106966090841  0.2182031808392311  1.0000
  H   H76       1.0  0.7658501814035602  0.16008930337214655  0.7182031811611749  1.0000
  H   H77       1.0  0.2704177667782397  0.19350732159617579  0.6623112772613815  1.0000
  H   H78       1.0  0.7295822332873905  0.8064926783850549  0.16231127765968043  1.0000
  H   H79       1.0  0.2295822332545754  0.19350732159617579  0.16231127765968043  1.0000
  H   H80       1.0  0.7704177664692732  0.8064926783850549  0.6623112772613815  1.0000
  H   H81       1.0  0.21050268564193453  0.29091571753240214  0.34796248233136495  1.0000
  H   H82       1.0  0.7894973144236956  0.7090842824488286  0.8479624826533088  1.0000
  H   H83       1.0  0.28949731439088056  0.29091571753240214  0.8479624826533088  1.0000
  H   H84       1.0  0.7105026853329681  0.7090842824488286  0.34796248233136495  1.0000
  H   H85       1.0  0.15432113778247938  0.1353044293225526  0.32327687470865035  1.0000
  H   H86       1.0  0.8456788622831507  0.8646955706586781  0.8232768750305941  1.0000
  H   H87       1.0  0.3456788622503357  0.1353044293225526  0.8232768750305941  1.0000
  H   H88       1.0  0.6543211378152946  0.8646955706586781  0.32327687470865035  1.0000
  H   H89       1.0  0.19746954431799543  0.5669792694604316  0.6816791088880303  1.0000
  H   H90       1.0  0.8025304557476348  0.43302073052079904  0.1816791092863292  1.0000
  H   H91       1.0  0.3025304557148197  0.5669792694604316  0.1816791092863292  1.0000
  H   H92       1.0  0.6974695443508104  0.43302073052079904  0.6816791088880303  1.0000
  H   H93       1.0  0.09194331381334943  0.5464305885313108  0.6135395322758014  1.0000
  H   H94       1.0  0.9080566862522808  0.45356941144991997  0.11353953195385767  1.0000
  H   H95       1.0  0.4080566862194656  0.5464305885313108  0.11353953195385767  1.0000
  H   H96       1.0  0.5919433138461645  0.45356941144991997  0.6135395322758014  1.0000
  H   H97       1.0  0.13222060501653704  0.2591950607391406  0.6209673968859986  1.0000
  H   H98       1.0  0.8677793950490931  0.7408049392420901  0.1209673965640548  1.0000
  H   H99       1.0  0.367779395016278  0.2591950607391406  0.1209673965640548  1.0000
  H   H100      1.0  0.6322206050493522  0.7408049392420901  0.6209673968859986  1.0000
  H   H101      1.0  0.10525343213128163  0.3418592996899417  0.5084600411727302  1.0000
  H   H102      1.0  0.8947465679343486  0.6581407002912889  0.008460040850786457  1.0000
  H   H103      1.0  0.39474656790153345  0.3418592996899417  0.008460040850786457  1.0000
  H   H104      1.0  0.6052534321640967  0.6581407002912889  0.5084600411727302  1.0000
  C   C1        1.0  0.45915311560372785  0.5868252981614529  0.34400824608449077  1.0000
  C   C2        1.0  0.5408468844619023  0.41317470181977783  0.8440082464064346  1.0000
  C   C3        1.0  0.0408468844290872  0.5868252981614529  0.8440082464064346  1.0000
  C   C4        1.0  0.9591531156365429  0.41317470181977783  0.34400824608449077  1.0000
  C   C5        1.0  0.32981630908923226  0.7461201579001526  0.3809125229655555  1.0000
  C   C6        1.0  0.6701836909763979  0.2538798420810781  0.8809125232874992  1.0000
  C   C7        1.0  0.17018369094358277  0.7461201579001526  0.8809125232874992  1.0000
  C   C8        1.0  0.8298163091220474  0.2538798420810781  0.3809125229655555  1.0000
  C   C9        1.0  0.3738414986457484  0.5692673305442749  0.3668216281322722  1.0000
  C   C10       1.0  0.6261585014198818  0.4307326694369557  0.866821628454216  1.0000
  C   C11       1.0  0.1261585013870667  0.5692673305442749  0.866821628454216  1.0000
  C   C12       1.0  0.8738414986785634  0.4307326694369557  0.3668216281322722  1.0000
  C   C13       1.0  0.4163667011344944  0.7659616541260389  0.3610189069509962  1.0000
  C   C14       1.0  0.5836332985893542  0.23403834585519176  0.8610189072729401  1.0000
  C   C15       1.0  0.08363329889832065  0.7659616541260389  0.8610189072729401  1.0000
  C   C16       1.0  0.9163667011673096  0.23403834585519176  0.3610189069509962  1.0000
  C   C17       1.0  0.28911855520773194  0.5408757789335256  0.39443918973551406  1.0000
  C   C18       1.0  0.7108814448578983  0.4591242210477051  0.8944391893372151  1.0000
  C   C19       1.0  0.21088144482508314  0.5408757789335256  0.8944391893372151  1.0000
  C   C20       1.0  0.789118555240547  0.4591242210477051  0.39443918973551406  1.0000
  C   C21       1.0  0.5939960624262643  0.715524591436585  0.1728831666775627  1.0000
  C   C22       1.0  0.4060039376393657  0.2844754085446457  0.6728831669995066  1.0000
  C   C23       1.0  0.9060039376721808  0.715524591436585  0.6728831669995066  1.0000
  C   C24       1.0  0.09399606239344935  0.2844754085446457  0.1728831666775627  1.0000
  C   C25       1.0  0.47975770731130657  0.9968636918854138  0.08382832847899206  1.0000
  C   C26       1.0  0.5202422927543235  0.0031363080958168176  0.5838283280806932  1.0000
  C   C27       1.0  0.02024229272150845  0.9968636918854138  0.5838283280806932  1.0000
  C   C28       1.0  0.9797577073441216  0.0031363080958168176  0.08382832847899206  1.0000
  C   C29       1.0  0.5217600182819849  0.9439721006653762  0.14218881964598903  1.0000
  C   C30       1.0  0.4782399814418638  0.05602789931585455  0.6421888199679329  1.0000
  C   C31       1.0  0.9782399814746788  0.9439721006653762  0.6421888199679329  1.0000
  C   C32       1.0  0.02176001824916978  0.05602789931585455  0.14218881964598903  1.0000
  C   C33       1.0  0.5553983692544561  0.7456088556167356  0.11385709849291872  1.0000
  C   C34       1.0  0.444601630811174  0.25439114436449506  0.6138570980946199  1.0000
  C   C35       1.0  0.9446016308439891  0.7456088556167356  0.6138570980946199  1.0000
  C   C36       1.0  0.05539836922164108  0.25439114436449506  0.11385709849291872  1.0000
  C   C37       1.0  0.5649601397763863  0.06389879931561349  0.27727057367016866  1.0000
  C   C38       1.0  0.43503986028924385  0.9361012006656172  0.7772705739921125  1.0000
  C   C39       1.0  0.935039860322059  0.06389879931561349  0.7772705739921125  1.0000
  C   C40       1.0  0.06496013974357126  0.9361012006656172  0.27727057367016866  1.0000
  C   C41       1.0  0.6313228752655128  0.5047846324842548  0.1477410627368289  1.0000
  C   C42       1.0  0.3686771248001174  0.4952153674969758  0.6477410630587728  1.0000
  C   C43       1.0  0.8686771248329325  0.5047846324842548  0.6477410630587728  1.0000
  C   C44       1.0  0.1313228752326977  0.4952153674969758  0.1477410627368289  1.0000
  C   C45       1.0  0.2680923117639991  0.9562042540854773  0.6493913314347328  1.0000
  C   C46       1.0  0.7319076879598495  0.04379574589575356  0.14939133111278896  1.0000
  C   C47       1.0  0.23190768792703448  0.9562042540854773  0.14939133111278896  1.0000
  C   C48       1.0  0.7680923117968141  0.04379574589575356  0.6493913314347328  1.0000
  C   C49       1.0  0.1864497195588464  0.9932493350289355  0.4456461733098836  1.0000
  C   C50       1.0  0.8135502801650023  0.006750664952295207  0.9456461729115847  1.0000
  C   C51       1.0  0.31355028047396866  0.9932493350289355  0.9456461729115847  1.0000
  C   C52       1.0  0.6864497195916615  0.006750664952295207  0.4456461733098836  1.0000
  C   C53       1.0  0.2273923075930975  0.8897050986829427  0.5890892870095616  1.0000
  C   C54       1.0  0.7726076924725326  0.11029490129828796  0.08908928668761788  1.0000
  C   C55       1.0  0.27260769243971755  0.8897050986829427  0.08908928668761788  1.0000
  C   C56       1.0  0.7273923076259126  0.11029490129828796  0.5890892870095616  1.0000
  C   C57       1.0  0.19398552554976803  0.6887705589698303  0.614588194872248  1.0000
  C   C58       1.0  0.8060144745158621  0.31122944101140043  0.11458819455030418  1.0000
  C   C59       1.0  0.306014474483047  0.6887705589698303  0.11458819455030418  1.0000
  C   C60       1.0  0.6939855255825831  0.31122944101140043  0.614588194872248  1.0000
  C   C61       1.0  0.1570576004315947  0.6482611386305704  0.5511924652435668  1.0000
  C   C62       1.0  0.8429423996340354  0.3517388613506603  0.051192465641865706  1.0000
  C   C63       1.0  0.34294239960122036  0.6482611386305704  0.051192465641865706  1.0000
  C   C64       1.0  0.6570576004644098  0.3517388613506603  0.5511924652435668  1.0000
  C   C65       1.0  0.11969606019939498  0.4360208952731396  0.574338057805389  1.0000
  C   C66       1.0  0.8803039398662351  0.5639791047080912  0.074338058203688  1.0000
  C   C67       1.0  0.3803039398334201  0.4360208952731396  0.074338058203688  1.0000
  C   C68       1.0  0.6196960598904285  0.5639791047080912  0.574338057805389  1.0000
  N   N1        1.0  0.526392727420204  0.10102395618242077  0.22377730562414247  1.0000
  N   N2        1.0  0.4736072723036446  0.89897604379881  0.7237773052258436  1.0000
  N   N3        1.0  0.9736072723364596  0.10102395618242077  0.7237773052258436  1.0000
  N   N4        1.0  0.026392727387389008  0.89897604379881  0.22377730562414247  1.0000
  N   N5        1.0  0.5990941145970105  0.8747583945189623  0.25340575321049846  1.0000
  N   N6        1.0  0.40090588512683817  0.12524160546226837  0.7534057535324422  1.0000
  N   N7        1.0  0.9009058851596532  0.8747583945189623  0.7534057535324422  1.0000
  N   N8        1.0  0.09909411490597687  0.12524160546226837  0.25340575321049846  1.0000
  N   N9        1.0  0.5693042332351658  0.22409008557426072  0.35737352014554485  1.0000
  N   N10       1.0  0.4306957668304643  0.77590991440697  0.857373519747246  1.0000
  N   N11       1.0  0.9306957668632794  0.22409008557426072  0.857373519747246  1.0000
  N   N12       1.0  0.06930423320235078  0.77590991440697  0.35737352014554485  1.0000
  N   N13       1.0  0.22309277628995472  0.03697955549503358  0.5050767233238054  1.0000
  N   N14       1.0  0.7769072237756753  0.9630204444861972  0.005076723722104295  1.0000
  N   N15       1.0  0.2769072237428603  0.03697955549503358  0.005076723722104295  1.0000
  N   N16       1.0  0.7230927763227698  0.9630204444861972  0.5050767233238054  1.0000
  N   N17       1.0  0.1838112002090697  0.148735914312347  0.3650260104539921  1.0000
  N   N18       1.0  0.8161887998565605  0.8512640856688838  0.8650260100556932  1.0000
  N   N19       1.0  0.31618879982374537  0.148735914312347  0.8650260100556932  1.0000
  N   N20       1.0  0.6838112002418848  0.8512640856688838  0.3650260104539921  1.0000
  N   N21       1.0  0.1532054006176683  0.7985960855756653  0.4687303032389656  1.0000
  N   N22       1.0  0.8467945994479619  0.20140391440556543  0.9687303035609095  1.0000
  N   N23       1.0  0.3467945994151468  0.7985960855756653  0.9687303035609095  1.0000
  N   N24       1.0  0.6532054006504833  0.20140391440556543  0.4687303032389656  1.0000
  O   O1        1.0  0.2875287869246438  0.4071997445135988  0.47579130789835583  1.0000
  O   O2        1.0  0.7124712131409863  0.5928002554676319  0.9757913075000568  1.0000
  O   O3        1.0  0.21247121310817127  0.4071997445135988  0.9757913075000568  1.0000
  O   O4        1.0  0.7875287869574588  0.5928002554676319  0.47579130789835583  1.0000
  O   O5        1.0  0.4607415041148972  0.46279544685213264  0.25817467400385186  1.0000
  O   O6        1.0  0.5392584959507328  0.537204553129098  0.7581746736055529  1.0000
  O   O7        1.0  0.039258495917917795  0.46279544685213264  0.7581746736055529  1.0000
  O   O8        1.0  0.9607415041477123  0.537204553129098  0.25817467400385186  1.0000
  O   O9        1.0  0.4890775067841182  0.55564689580133  0.4067338071481859  1.0000
  O   O10       1.0  0.5109224932815118  0.4443531041799007  0.9067338074701298  1.0000
  O   O11       1.0  0.010922493248696838  0.55564689580133  0.9067338074701298  1.0000
  O   O12       1.0  0.9890775068169333  0.4443531041799007  0.4067338071481859  1.0000
  O   O13       1.0  0.26044825058407833  0.5080537482502292  0.32708581567140843  1.0000
  O   O14       1.0  0.7395517494815518  0.4919462517310014  0.8270858159933523  1.0000
  O   O15       1.0  0.23955174944873672  0.5080537482502292  0.8270858159933523  1.0000
  O   O16       1.0  0.7604482506168934  0.4919462517310014  0.32708581567140843  1.0000
