data_image0
_chemical_formula_structural       H44C8N4O32P8
_chemical_formula_sum              "H44 C8 N4 O32 P8"
_cell_length_a       7.905827521199452
_cell_length_b       16.122389977149634
_cell_length_c       7.491404726354385
_cell_angle_alpha    90.0
_cell_angle_beta     116.66683219722842
_cell_angle_gamma    90.0

_space_group_name_H-M_alt    "P 1"
_space_group_IT_number       1

loop_
  _space_group_symop_operation_xyz
  'x, y, z'

loop_
  _atom_site_type_symbol
  _atom_site_label
  _atom_site_symmetry_multiplicity
  _atom_site_fract_x
  _atom_site_fract_y
  _atom_site_fract_z
  _atom_site_occupancy
  H   H1        1.0  0.24823715407619248  0.207803451891958  0.8002426418865997  1.0000
  H   H2        1.0  0.7517628464043931  0.7078034519803558  0.6997573586666375  1.0000
  H   H3        1.0  0.7517628468519072  0.7921965482848374  0.199757358168753  1.0000
  H   H4        1.0  0.24823715325689563  0.2921965481964397  0.3002426413841837  1.0000
  H   H5        1.0  0.43823280305526774  0.40471562214087986  0.001153802335213515  1.0000
  H   H6        1.0  0.5617671970535351  0.9047156222292776  0.4988461972177231  1.0000
  H   H7        1.0  0.5617671966060208  0.5952843780359156  0.9988461977156076  1.0000
  H   H8        1.0  0.4382328038745646  0.09528437794751789  0.5011538028376294  1.0000
  H   H9        1.0  0.9804431785709333  0.36579801867828643  0.5470592436692763  1.0000
  H   H10       1.0  0.01955682127823613  0.8657980187666842  0.9529407553902162  1.0000
  H   H11       1.0  0.019556822357166225  0.634201981498509  0.45294075638607634  1.0000
  H   H12       1.0  0.9804431783830525  0.1342019814101113  0.047059244660604925  1.0000
  H   H13       1.0  0.853651867326365  0.2412582176409849  0.21193720876431638  1.0000
  H   H14       1.0  0.1463481327824378  0.7412582177293826  0.28806279078862035  1.0000
  H   H15       1.0  0.14634813233492364  0.7587417825358106  0.7880627912865048  1.0000
  H   H16       1.0  0.853651868145662  0.25874178244741286  0.7119372092667324  1.0000
  H   H17       1.0  0.9854424244608901  0.3790289515798185  0.07115663284824776  1.0000
  H   H18       1.0  0.014557576279328455  0.8790289516682163  0.4288433681984335  1.0000
  H   H19       1.0  0.014557576467209472  0.620971048596977  0.9288433672071049  1.0000
  H   H20       1.0  0.9854424233819602  0.12097104850857923  0.5711566318523876  1.0000
  H   H21       1.0  0.2491777739737037  0.08467618708732898  0.9986015268742932  1.0000
  H   H22       1.0  0.7508222265068818  0.5846761865554713  0.5013984736789439  1.0000
  H   H23       1.0  0.7508222256875849  0.9153238130894665  0.0013984731765279335  1.0000
  H   H24       1.0  0.24917777442121783  0.4153238130010688  0.4986015263764087  1.0000
  H   H25       1.0  0.357630699147812  0.005254893357627265  0.15153426751255242  1.0000
  H   H26       1.0  0.6423693009609908  0.505254893446025  0.3484657320403843  1.0000
  H   H27       1.0  0.6423693005134765  0.9947451068191682  0.8484657325382687  1.0000
  H   H28       1.0  0.35763069996710894  0.4947451067307705  0.6515342680149685  1.0000
  H   H29       1.0  0.5745082509520769  0.12082827191011818  0.22281055252914092  1.0000
  H   H30       1.0  0.42549174915672594  0.6208282719985159  0.2771894470237958  1.0000
  H   H31       1.0  0.4254917499760228  0.8791717282666773  0.7771894475262117  1.0000
  H   H32       1.0  0.5745082505045627  0.37917172817827954  0.7228105530270253  1.0000
  H   H33       1.0  0.5326350702806064  0.12018861116412353  0.9686915166038375  1.0000
  H   H34       1.0  0.467364930199979  0.6201886112525213  0.5313084839493996  1.0000
  H   H35       1.0  0.46736492938068214  0.8798113890126719  0.0313084834469836  1.0000
  H   H36       1.0  0.5326350707281207  0.37981138892427424  0.46869151610595305  1.0000
  H   H37       1.0  0.8308797549279265  0.04401068272170938  0.1816961892928217  1.0000
  H   H38       1.0  0.16912024581229218  0.5440106828101071  0.3183038117538596  1.0000
  H   H39       1.0  0.1691202447333621  0.9559893174550862  0.8183038107579994  1.0000
  H   H40       1.0  0.8308797538489964  0.45598931736668835  0.6816961882969615  1.0000
  H   H41       1.0  0.7075187092668014  0.976522400358377  0.27017767265788567  1.0000
  H   H42       1.0  0.29248129084200136  0.4765224008902347  0.22982232689505103  1.0000
  H   H43       1.0  0.2924812903944872  0.023477599198163033  0.7298223273929354  1.0000
  H   H44       1.0  0.7075187088192872  0.5234775992865608  0.7701776731557701  1.0000
  C   C1        1.0  0.5431536025989888  0.08127875035011864  0.09317901332919512  1.0000
  C   C2        1.0  0.45684639750981393  0.5812787504385164  0.4068209862237416  1.0000
  C   C3        1.0  0.4568463983291109  0.9187212492064215  0.9068209867261575  1.0000
  C   C4        1.0  0.5431536021514746  0.4187212497382791  0.5931790138270796  1.0000
  C   C5        1.0  0.6939080748285636  0.015033727651019865  0.14395904605565008  1.0000
  C   C6        1.0  0.306091925911655  0.5150337277394176  0.35604095499103117  1.0000
  C   C7        1.0  0.30609192609953595  0.9849662719055201  0.8560409539997025  1.0000
  C   C8        1.0  0.6939080737496336  0.4849662718171225  0.64395904505979  1.0000
  N   N1        1.0  0.35495360751874844  0.04091758051597696  0.031967609278242784  1.0000
  N   N2        1.0  0.6450463919546593  0.5409175806043748  0.468032391763907  1.0000
  N   N3        1.0  0.6450463921425402  0.9590824196608185  0.9680323907725784  1.0000
  N   N4        1.0  0.35495360770662937  0.4590824195724208  0.5319676082869141  1.0000
  O   O1        1.0  0.9969902615854079  0.3250955793420549  0.7261202895614547  1.0000
  O   O2        1.0  0.003009738263761637  0.8250955794304526  0.7738797094980376  1.0000
  O   O3        1.0  0.003009739342691731  0.6749044208347406  0.27387971049389787  1.0000
  O   O4        1.0  0.9969902613975269  0.17490442074634283  0.22612029055278338  1.0000
  O   O5        1.0  0.17486446375154577  0.34220302931633984  0.10591769604751523  1.0000
  O   O6        1.0  0.825135536357257  0.8422030294047377  0.39408230350542145  1.0000
  O   O7        1.0  0.8251355359097429  0.6577969708604556  0.8940823040033059  1.0000
  O   O8        1.0  0.17486446457084262  0.1577969707720579  0.6059176965499312  1.0000
  O   O9        1.0  0.2811423687777805  0.23456674384876783  0.9363318511371187  1.0000
  O   O10       1.0  0.7188576317028051  0.7345667439371656  0.5636681494161184  1.0000
  O   O11       1.0  0.7188576308835083  0.7654332557077722  0.06366814891370244  1.0000
  O   O12       1.0  0.28114236922529456  0.26543325623962993  0.43633185063923424  1.0000
  O   O13       1.0  0.31578599108870076  0.3895781114897979  0.87569598378029  1.0000
  O   O14       1.0  0.6842140087604688  0.8895781115781957  0.6243040152792025  1.0000
  O   O15       1.0  0.684214008572588  0.6104218886869975  0.12430401627053118  1.0000
  O   O16       1.0  0.31578599216763087  0.11042188859859987  0.3756959847761501  1.0000
  O   O17       1.0  0.9722800712749431  0.3979429159754318  0.4212616442571936  1.0000
  O   O18       1.0  0.027719928833859608  0.8979429154435741  0.07873835529574313  1.0000
  O   O19       1.0  0.027719929653156505  0.6020570842013637  0.5787383557981591  1.0000
  O   O20       1.0  0.9722800708274292  0.10205708411296599  0.9212616447550781  1.0000
  O   O21       1.0  0.751698667666767  0.2826669195112538  0.20530405734989632  1.0000
  O   O22       1.0  0.2483013324420358  0.7826669195996515  0.29469594220304035  1.0000
  O   O23       1.0  0.24830133326133272  0.7173330806655417  0.7946959427054563  1.0000
  O   O24       1.0  0.7516986672192529  0.21733308057714398  0.7053040578477808  1.0000
  O   O25       1.0  0.621058659996733  0.4248690634396274  0.1872786752683382  1.0000
  O   O26       1.0  0.3789413401120698  0.924869063528025  0.31272132428459853  1.0000
  O   O27       1.0  0.37894133966455573  0.5751309361169127  0.812721324782483  1.0000
  O   O28       1.0  0.6210586608160299  0.0751309366487704  0.6872786757707542  1.0000
  O   O29       1.0  0.8585790648733717  0.404107970917092  0.053382682060221155  1.0000
  O   O30       1.0  0.14142093523543114  0.9041079710054898  0.44661731749271555  1.0000
  O   O31       1.0  0.14142093605472802  0.5958920286394481  0.9466173179951315  1.0000
  O   O32       1.0  0.8585790644258574  0.09589202917130575  0.5533826825581056  1.0000
  P   P1        1.0  0.18915485233240048  0.32318774743601647  0.9130850602425291  1.0000
  P   P2        1.0  0.8108451468813741  0.8231877475244143  0.5869149403061766  1.0000
  P   P3        1.0  0.8108451473288882  0.676812252740779  0.08691493980829217  1.0000
  P   P4        1.0  0.1891548527799146  0.17681225265238124  0.41308505974464454  1.0000
  P   P5        1.0  0.7966822840358668  0.3775291361036843  0.21631394470736712  1.0000
  P   P6        1.0  0.20331771670435178  0.8775291361920821  0.28368605633931415  1.0000
  P   P7        1.0  0.20331771562542172  0.6224708634528557  0.783686055343454  1.0000
  P   P8        1.0  0.7966822829569368  0.12247086398471344  0.7163139437115069  1.0000
