data_image0
_chemical_formula_structural       H24C12N2O16P4
_chemical_formula_sum              "H24 C12 N2 O16 P4"
_cell_length_a       7.762648544849925
_cell_length_b       8.734873377945142
_cell_length_c       8.92090298713506
_cell_angle_alpha    92.89654823363408
_cell_angle_beta     110.1590266601172
_cell_angle_gamma    103.3336397584639

_space_group_name_H-M_alt    "P 1"
_space_group_IT_number       1

loop_
  _space_group_symop_operation_xyz
  'x, y, z'

loop_
  _atom_site_type_symbol
  _atom_site_label
  _atom_site_symmetry_multiplicity
  _atom_site_fract_x
  _atom_site_fract_y
  _atom_site_fract_z
  _atom_site_occupancy
  H   H1        1.0  0.13578701984510405  0.8112807618032212  0.2337875219488876  1.0000
  H   H2        1.0  0.8642129809248569  0.18871923910411922  0.7662124787217823  1.0000
  H   H3        1.0  0.13188729143233463  0.4433339815988845  0.4821700384144224  1.0000
  H   H4        1.0  0.8681127090248834  0.5566660181320419  0.5178299622570754  1.0000
  H   H5        1.0  0.4780244900424657  0.813172784345583  0.59421049732921  1.0000
  H   H6        1.0  0.5219755098860158  0.18682721521539258  0.4057895021359081  1.0000
  H   H7        1.0  0.05192101523245598  0.8730063274196754  0.9962409630983389  1.0000
  H   H8        1.0  0.9480789839412014  0.1269936723192646  0.003759037579567718  1.0000
  H   H9        1.0  0.9755976900091127  0.8528098479695893  0.5873566145065001  1.0000
  H   H10       1.0  0.024402309919368897  0.14719015159138651  0.4126433849586181  1.0000
  H   H11       1.0  0.4910803933313025  0.10386647237432689  0.13953988040510212  1.0000
  H   H12       1.0  0.508919605842355  0.8961335273646132  0.8604601202728045  1.0000
  H   H13       1.0  0.3586003153236621  0.10332560935818115  0.7243255760964338  1.0000
  H   H14       1.0  0.6413996854462987  0.8966743915491591  0.2756744245742361  1.0000
  H   H15       1.0  0.8165965890435926  0.6101835719484938  0.01846487628694063  1.0000
  H   H16       1.0  0.18340341088488898  0.38981642761248175  0.9815351231781777  1.0000
  H   H17       1.0  0.4052229978353888  0.3472187558648263  0.5942967064413964  1.0000
  H   H18       1.0  0.5947770020930928  0.6527812436961493  0.40570329302372177  1.0000
  H   H19       1.0  0.7018235844955998  0.07902990698141159  0.1242201818657392  1.0000
  H   H20       1.0  0.2981764157456248  0.9209700937559782  0.8757798175985512  1.0000
  H   H21       1.0  0.7901009147974605  0.3763720177012632  0.16828654634272147  1.0000
  H   H22       1.0  0.209899085443764  0.6236279830361265  0.8317134531215687  1.0000
  H   H23       1.0  0.6224376091003015  0.5847633962235692  0.7465160837335957  1.0000
  H   H24       1.0  0.3775623913569164  0.41523660350735714  0.2534839169379021  1.0000
  C   C1        1.0  0.45892176948729435  0.21263941864260746  0.7967761783954189  1.0000
  C   C2        1.0  0.5410782309699236  0.787360581088319  0.20322382227607885  1.0000
  C   C3        1.0  0.5684358032763998  0.21957440131050007  0.960534807175786  1.0000
  C   C4        1.0  0.43156419665208184  0.7804255982504756  0.039465192289332145  1.0000
  C   C5        1.0  0.6982973920270226  0.3655593353292064  0.04241296480972124  1.0000
  C   C6        1.0  0.30170260821420186  0.6344406654081832  0.957587034654569  1.0000
  C   C7        1.0  0.7154220507804362  0.49594559760092377  0.9624537943220471  1.0000
  C   C8        1.0  0.2845779496767819  0.5040544021300026  0.03754620634945068  1.0000
  C   C9        1.0  0.5554254701371103  0.08004062962907667  0.051369014725771246  1.0000
  C   C10       1.0  0.44457453032010774  0.9199593701018498  0.9486309859457266  1.0000
  C   C11       1.0  0.48150375115586047  0.3466357110336572  0.7216655163966637  1.0000
  C   C12       1.0  0.5184962490853641  0.6533642897037325  0.27833448306762654  1.0000
  N   N1        1.0  0.6067947134451276  0.4839561255306758  0.8050749635699666  1.0000
  N   N2        1.0  0.39320528732483323  0.5160438753766645  0.1949250371007033  1.0000
  O   O1        1.0  0.3473442102643599  0.8420370798010017  0.5397196351089321  1.0000
  O   O2        1.0  0.6526557883805612  0.15796291976798751  0.460280364362595  1.0000
  O   O3        1.0  0.23745527666866495  0.5432866511044384  0.48648900764159314  1.0000
  O   O4        1.0  0.7625447219762561  0.4567133484645509  0.5135109918299339  1.0000
  O   O5        1.0  0.013915225978867053  0.7014571196307963  0.5227059781455449  1.0000
  O   O6        1.0  0.9860847731947904  0.2985428801081436  0.4772940225323618  1.0000
  O   O7        1.0  0.09709790675076209  0.7014063151184051  0.26987281042624056  1.0000
  O   O8        1.0  0.9029020931777194  0.2985936844425705  0.7301271890388775  1.0000
  O   O9        1.0  0.8201286480773502  0.04169802261648512  0.8383337569104475  1.0000
  O   O10       1.0  0.17987135185113143  0.9583019769444905  0.1616662425546706  1.0000
  O   O11       1.0  0.648251860285858  0.7651486220445838  0.6711199455643232  1.0000
  O   O12       1.0  0.35174813995536636  0.2348513786928058  0.328880053899967  1.0000
  O   O13       1.0  0.9601176508572471  0.8021172738995452  0.8900417989067649  1.0000
  O   O14       1.0  0.039882347787673994  0.19788272566944407  0.1099582005647621  1.0000
  O   O15       1.0  0.9461163671245109  0.943437048352754  0.6426570596078068  1.0000
  O   O16       1.0  0.053883633645450055  0.056562952554586425  0.3573429410628631  1.0000
  P   P1        1.0  0.17027623758639154  0.6989911449066394  0.45658907226085305  1.0000
  P   P2        1.0  0.8297237628708265  0.3010088548242869  0.5434109284106446  1.0000
  P   P3        1.0  0.8379274785779062  0.8890884496076484  0.7593977130225636  1.0000
  P   P4        1.0  0.16207252135057534  0.11091154995332729  0.24060228644255455  1.0000
