data_image0
_chemical_formula_structural       H124C108N4O4S32Br8
_chemical_formula_sum              "H124 C108 N4 O4 S32 Br8"
_cell_length_a       23.351247458945405
_cell_length_b       9.512466428024096
_cell_length_c       14.049222894472006
_cell_angle_alpha    90.0
_cell_angle_beta     90.58878035707323
_cell_angle_gamma    90.0

_space_group_name_H-M_alt    "P 1"
_space_group_IT_number       1

loop_
  _space_group_symop_operation_xyz
  'x, y, z'

loop_
  _atom_site_type_symbol
  _atom_site_label
  _atom_site_symmetry_multiplicity
  _atom_site_fract_x
  _atom_site_fract_y
  _atom_site_fract_z
  _atom_site_occupancy
  H   H1        1.0  0.6669544585619727  0.7742694879113368  0.27303818678840536  1.0000
  H   H2        1.0  0.16695445838307865  0.2742694883331042  0.2730381865707067  1.0000
  H   H3        1.0  0.33304554134999215  0.7742694879113368  0.7269618134146593  1.0000
  H   H4        1.0  0.8330455415288861  0.2742694883331042  0.7269618136323579  1.0000
  H   H5        1.0  0.33304554134999215  0.2257305122963805  0.7269618134146593  1.0000
  H   H6        1.0  0.8330455415288861  0.7257305118746131  0.7269618136323579  1.0000
  H   H7        1.0  0.6669544585619727  0.2257305122963805  0.27303818678840536  1.0000
  H   H8        1.0  0.16695445838307865  0.7257305118746131  0.2730381865707067  1.0000
  H   H9        1.0  0.6712943747213895  0.7527063390106782  0.3964628391406819  1.0000
  H   H10       1.0  0.17129437497073946  0.2527063394324455  0.39646283892318385  1.0000
  H   H11       1.0  0.3287056251905752  0.7527063390106782  0.6035371610623826  1.0000
  H   H12       1.0  0.8287056249412252  0.2527063394324455  0.6035371612798807  1.0000
  H   H13       1.0  0.3287056251905752  0.24729366119703913  0.6035371610623826  1.0000
  H   H14       1.0  0.8287056249412252  0.7472936607752718  0.6035371612798807  1.0000
  H   H15       1.0  0.6712943747213895  0.24729366119703913  0.3964628391406819  1.0000
  H   H16       1.0  0.17129437497073946  0.7472936607752718  0.39646283892318385  1.0000
  H   H17       1.0  0.710319141989181  0.8923062324818224  0.34031040784348454  1.0000
  H   H18       1.0  0.21031914224281106  0.3923062329035898  0.3403104083378072  1.0000
  H   H19       1.0  0.28968085791850356  0.8923062324818224  0.6596895916477592  1.0000
  H   H20       1.0  0.7896808576691537  0.3923062329035898  0.6596895918652573  1.0000
  H   H21       1.0  0.28968085791850356  0.10769376772589488  0.6596895916477592  1.0000
  H   H22       1.0  0.7896808576691537  0.6076937673041275  0.6596895918652573  1.0000
  H   H23       1.0  0.710319141989181  0.10769376772589488  0.34031040784348454  1.0000
  H   H24       1.0  0.21031914224281106  0.6076937673041275  0.3403104083378072  1.0000
  H   H25       1.0  0.2782553076484757  0.8275233200097724  0.3386142156596675  1.0000
  H   H26       1.0  0.7782553078230895  0.3275233204315397  0.33861421516554546  1.0000
  H   H27       1.0  0.7217446922634889  0.8275233200097724  0.661385784543397  1.0000
  H   H28       1.0  0.2217446920845951  0.3275233204315397  0.6613857843256984  1.0000
  H   H29       1.0  0.7217446922634889  0.17247667914669293  0.661385784543397  1.0000
  H   H30       1.0  0.2217446920845951  0.6724766797761775  0.6613857843256984  1.0000
  H   H31       1.0  0.2782553076484757  0.17247667914669293  0.3386142156596675  1.0000
  H   H32       1.0  0.7782553078230895  0.6724766797761775  0.33861421516554546  1.0000
  H   H33       1.0  0.3087548471665432  0.7304417652954894  0.4360750916282065  1.0000
  H   H34       1.0  0.8087548473454372  0.23044176571725689  0.4360750918459052  1.0000
  H   H35       1.0  0.6912451527454215  0.7304417652954894  0.5639249085748581  1.0000
  H   H36       1.0  0.19124515256652758  0.23044176571725689  0.5639249083571594  1.0000
  H   H37       1.0  0.6912451527454215  0.2695582338609757  0.5639249085748581  1.0000
  H   H38       1.0  0.19124515256652758  0.7695582344904605  0.5639249083571594  1.0000
  H   H39       1.0  0.3087548471665432  0.2695582338609757  0.4360750916282065  1.0000
  H   H40       1.0  0.8087548473454372  0.7695582344904605  0.4360750918459052  1.0000
  H   H41       1.0  0.26555076112766307  0.8835552906908729  0.45556442124383995  1.0000
  H   H42       1.0  0.765550761302277  0.3835552900613883  0.4555644207497179  1.0000
  H   H43       1.0  0.7344492387843018  0.8835552906908729  0.5444355789592247  1.0000
  H   H44       1.0  0.23444923860540773  0.3835552900613883  0.544435578741526  1.0000
  H   H45       1.0  0.7344492387843018  0.11644470951684437  0.5444355789592247  1.0000
  H   H46       1.0  0.23444923860540773  0.6164447101463291  0.544435578741526  1.0000
  H   H47       1.0  0.26555076112766307  0.11644470951684437  0.45556442124383995  1.0000
  H   H48       1.0  0.765550761302277  0.6164447101463291  0.4555644207497179  1.0000
  H   H49       1.0  0.6618860441561495  0.21704289267372015  0.7854581722967429  1.0000
  H   H50       1.0  0.16188604440549945  0.7170428922519528  0.7854581720792448  1.0000
  H   H51       1.0  0.3381139557558152  0.21704289267372015  0.21454182790632176  1.0000
  H   H52       1.0  0.8381139555064652  0.7170428922519528  0.21454182812381986  1.0000
  H   H53       1.0  0.3381139557558152  0.7829571075339972  0.21454182790632176  1.0000
  H   H54       1.0  0.8381139555064652  0.2829571079557645  0.21454182812381986  1.0000
  H   H55       1.0  0.6618860441561495  0.7829571075339972  0.7854581722967429  1.0000
  H   H56       1.0  0.16188604440549945  0.2829571079557645  0.7854581720792448  1.0000
  H   H57       1.0  0.7006817967010083  0.10963924108341233  0.8659052564276088  1.0000
  H   H58       1.0  0.2006817965221144  0.609639241712897  0.8659052562099103  1.0000
  H   H59       1.0  0.2993182032109564  0.10963924108341233  0.13409474377545563  1.0000
  H   H60       1.0  0.7993182033898504  0.609639241712897  0.1340947439931543  1.0000
  H   H61       1.0  0.2993182032109564  0.8903607591243049  0.13409474377545563  1.0000
  H   H62       1.0  0.7993182033898504  0.39036075849482027  0.1340947439931543  1.0000
  H   H63       1.0  0.7006817967010083  0.8903607591243049  0.8659052564276088  1.0000
  H   H64       1.0  0.2006817965221144  0.39036075849482027  0.8659052562099103  1.0000
  H   H65       1.0  0.6582475873874598  0.2528091844734664  0.9087536094455447  1.0000
  H   H66       1.0  0.1582475876368097  0.752809184051699  0.9087536092280466  1.0000
  H   H67       1.0  0.34175241252450494  0.2528091844734664  0.09124639075751982  1.0000
  H   H68       1.0  0.841752412703399  0.752809184051699  0.09124639097521847  1.0000
  H   H69       1.0  0.34175241252450494  0.747190815734251  0.09124639075751982  1.0000
  H   H70       1.0  0.841752412703399  0.24719081615601826  0.09124639097521847  1.0000
  H   H71       1.0  0.6582475873874598  0.747190815734251  0.9087536094455447  1.0000
  H   H72       1.0  0.1582475876368097  0.24719081615601826  0.9087536092280466  1.0000
  H   H73       1.0  0.2626910140966562  0.14342625861791308  0.8374856983693013  1.0000
  H   H74       1.0  0.7626910142755502  0.6434262592473978  0.8374856985870001  1.0000
  H   H75       1.0  0.7373089858153085  0.14342625861791308  0.16251430183376325  1.0000
  H   H76       1.0  0.2373089856364146  0.6434262592473978  0.16251430161606456  1.0000
  H   H77       1.0  0.7373089858153085  0.8565737405385522  0.16251430183376325  1.0000
  H   H78       1.0  0.2373089856364146  0.3565737409603195  0.16251430161606456  1.0000
  H   H79       1.0  0.2626910140966562  0.8565737405385522  0.8374856983693013  1.0000
  H   H80       1.0  0.7626910142755502  0.3565737409603195  0.8374856985870001  1.0000
  H   H81       1.0  0.29576371550430103  0.2694666098845239  0.9151369934990935  1.0000
  H   H82       1.0  0.7957637152549512  0.7694666094627565  0.9151369937165916  1.0000
  H   H83       1.0  0.7042362848316275  0.2694666098845239  0.08486300599235104  1.0000
  H   H84       1.0  0.2042362846570136  0.7694666094627565  0.08486300648647309  1.0000
  H   H85       1.0  0.7042362848316275  0.7305333903231933  0.08486300599235104  1.0000
  H   H86       1.0  0.2042362846570136  0.23053339074496074  0.08486300648647309  1.0000
  H   H87       1.0  0.29576371550430103  0.7305333903231933  0.9151369934990935  1.0000
  H   H88       1.0  0.7957637152549512  0.23053339074496074  0.9151369937165916  1.0000
  H   H89       1.0  0.25798020903217106  0.12031902647542261  0.9613959086429644  1.0000
  H   H90       1.0  0.7579802087828211  0.6203190260536553  0.9613959088604623  1.0000
  H   H91       1.0  0.7420197908797938  0.12031902647542261  0.03860409156010028  1.0000
  H   H92       1.0  0.24201979112914365  0.6203190260536553  0.03860409134260222  1.0000
  H   H93       1.0  0.7420197908797938  0.8796809737322946  0.03860409156010028  1.0000
  H   H94       1.0  0.24201979112914365  0.3796809741540621  0.03860409134260222  1.0000
  H   H95       1.0  0.25798020903217106  0.8796809737322946  0.9613959086429644  1.0000
  H   H96       1.0  0.7579802087828211  0.3796809741540621  0.9613959088604623  1.0000
  H   H97       1.0  0.19110651987154498  0.0  0.3075825650960795  1.0000
  H   H98       1.0  0.6911065196221952  0.49999999957823266  0.3075825653135776  1.0000
  H   H99       1.0  0.8088934800361395  0.0  0.6924174343951643  1.0000
  H   H100      1.0  0.30889348028976965  0.49999999957823266  0.6924174348894871  1.0000
  H   H101      1.0  0.19059834660370054  0.0  0.19506246295567894  1.0000
  H   H102      1.0  0.6905983467825944  0.49999999957823266  0.1950624631733776  1.0000
  H   H103      1.0  0.8094016533082642  0.0  0.8049375372473857  1.0000
  H   H104      1.0  0.3094016531293703  0.49999999957823266  0.804937537029687  1.0000
  H   H105      1.0  0.08601877531725602  0.0  0.899363616703306  1.0000
  H   H106      1.0  0.5860187754918699  0.49999999957823266  0.899363616209184  1.0000
  H   H107      1.0  0.9139812245947088  0.0  0.10063638349975854  1.0000
  H   H108      1.0  0.4139812248440587  0.49999999957823266  0.10063638328226046  1.0000
  H   H109      1.0  0.9788479954883353  0.0  0.9109156829123161  1.0000
  H   H110      1.0  0.47884799574196535  0.49999999957823266  0.9109156834066388  1.0000
  H   H111      1.0  0.0211520044193493  0.0  0.08908431657892785  1.0000
  H   H112      1.0  0.5211520045982432  0.49999999957823266  0.0890843167966265  1.0000
  H   H113      1.0  0.9190837498141216  0.0  0.7653312686525278  1.0000
  H   H114      1.0  0.4190837500634715  0.49999999957823266  0.7653312684350297  1.0000
  H   H115      1.0  0.08091625009784326  0.0  0.23466873155053694  1.0000
  H   H116      1.0  0.5809162498442132  0.49999999957823266  0.23466873105621427  1.0000
  H   H117      1.0  0.9635853948180837  0.0  0.6060798389073152  1.0000
  H   H118      1.0  0.4635853950674336  0.49999999957823266  0.6060798386898171  1.0000
  H   H119      1.0  0.036414605093881065  0.0  0.39392016129574936  1.0000
  H   H120      1.0  0.536414605272775  0.49999999957823266  0.393920161513448  1.0000
  H   H121      1.0  0.07118142797482224  0.0  0.5922815390163829  1.0000
  H   H122      1.0  0.5711814281537162  0.49999999957823266  0.5922815392340817  1.0000
  H   H123      1.0  0.9288185719328624  0.0  0.40771846047486093  1.0000
  H   H124      1.0  0.4288185717582486  0.49999999957823266  0.40771846096898295  1.0000
  C   C1        1.0  0.5145813472327662  0.0  0.3739920800148398  1.0000
  C   C2        1.0  0.014581347053872215  0.49999999957823266  0.37399207979714105  1.0000
  C   C3        1.0  0.48541865267919854  0.0  0.6260079201882249  1.0000
  C   C4        1.0  0.9854186528580926  0.49999999957823266  0.6260079204059235  1.0000
  C   C5        1.0  0.620126783965708  0.9282992562249947  0.3519645433143195  1.0000
  C   C6        1.0  0.12012678379109415  0.42829925664676205  0.3519645438084415  1.0000
  C   C7        1.0  0.37987321637022053  0.9282992562249947  0.6480354561771251  1.0000
  C   C8        1.0  0.8798732161208707  0.42829925664676205  0.648035456394623  1.0000
  C   C9        1.0  0.37987321637022053  0.07170074398272266  0.6480354561771251  1.0000
  C   C10       1.0  0.8798732161208707  0.5717007435609553  0.648035456394623  1.0000
  C   C11       1.0  0.620126783965708  0.07170074398272266  0.3519645433143195  1.0000
  C   C12       1.0  0.12012678379109415  0.5717007435609553  0.3519645438084415  1.0000
  C   C13       1.0  0.6701047196568946  0.8331221571150574  0.3402001595655507  1.0000
  C   C14       1.0  0.1701047199062445  0.3331221564855727  0.34020015934805264  1.0000
  C   C15       1.0  0.3298952802550702  0.8331221571150574  0.6597998406375138  1.0000
  C   C16       1.0  0.8298952800057202  0.3331221564855727  0.659799840855012  1.0000
  C   C17       1.0  0.3298952802550702  0.16687784309265988  0.6597998406375138  1.0000
  C   C18       1.0  0.8298952800057202  0.6668778437221445  0.659799840855012  1.0000
  C   C19       1.0  0.6701047196568946  0.16687784309265988  0.3402001595655507  1.0000
  C   C20       1.0  0.1701047199062445  0.6668778437221445  0.34020015934805264  1.0000
  C   C21       1.0  0.45527880909291724  0.0  0.38560226877753706  1.0000
  C   C22       1.0  0.9552788092718112  0.49999999957823266  0.38560226899523575  1.0000
  C   C23       1.0  0.5447211908147673  0.0  0.6143977307137068  1.0000
  C   C24       1.0  0.04472119064015357  0.49999999957823266  0.6143977312078289  1.0000
  C   C25       1.0  0.3497107505504177  0.9280662167691635  0.40546752032641453  1.0000
  C   C26       1.0  0.8497107507250315  0.42806621719093074  0.40546751983229257  1.0000
  C   C27       1.0  0.6502892493615471  0.9280662167691635  0.59453247987665  1.0000
  C   C28       1.0  0.15028924918265307  0.42806621719093074  0.5945324796589513  1.0000
  C   C29       1.0  0.6502892493615471  0.07193378343855393  0.59453247987665  1.0000
  C   C30       1.0  0.15028924918265307  0.5719337830167865  0.5945324796589513  1.0000
  C   C31       1.0  0.3497107505504177  0.07193378343855393  0.40546752032641453  1.0000
  C   C32       1.0  0.8497107507250315  0.5719337830167865  0.40546751983229257  1.0000
  C   C33       1.0  0.2980920211967406  0.8361487517651244  0.4097090505547296  1.0000
  C   C34       1.0  0.7980920209473907  0.3361487511356398  0.4097090507722276  1.0000
  C   C35       1.0  0.7019079787152241  0.8361487517651244  0.5902909496483351  1.0000
  C   C36       1.0  0.2019079789645741  0.3361487511356398  0.5902909494308369  1.0000
  C   C37       1.0  0.7019079787152241  0.16385124844259286  0.5902909496483351  1.0000
  C   C38       1.0  0.2019079789645741  0.6638512480208255  0.5902909494308369  1.0000
  C   C39       1.0  0.2980920211967406  0.16385124844259286  0.4097090505547296  1.0000
  C   C40       1.0  0.7980920209473907  0.6638512480208255  0.4097090507722276  1.0000
  C   C41       1.0  0.5043902215902625  0.0  0.8807626787139107  1.0000
  C   C42       1.0  0.00439022184389251  0.49999999957823266  0.8807626792082333  1.0000
  C   C43       1.0  0.49560977831742214  0.0  0.11923732077733327  1.0000
  C   C44       1.0  0.9956097784963162  0.49999999957823266  0.11923732099503195  1.0000
  C   C45       1.0  0.6102841716392567  0.07153161855009454  0.8634061641330348  1.0000
  C   C46       1.0  0.11028417146036273  0.5715316181283272  0.8634061639153363  1.0000
  C   C47       1.0  0.38971582827270806  0.07153161855009454  0.1365938360700297  1.0000
  C   C48       1.0  0.8897158284473219  0.5715316181283272  0.13659383557590765  1.0000
  C   C49       1.0  0.38971582827270806  0.9284683816576227  0.1365938360700297  1.0000
  C   C50       1.0  0.8897158284473219  0.42846838207939014  0.13659383557590765  1.0000
  C   C51       1.0  0.6102841716392567  0.9284683816576227  0.8634061641330348  1.0000
  C   C52       1.0  0.11028417146036273  0.42846838207939014  0.8634061639153363  1.0000
  C   C53       1.0  0.6605190517835396  0.16740105650294196  0.8559953254894574  1.0000
  C   C54       1.0  0.16051905160464566  0.6674010560811746  0.8559953252717588  1.0000
  C   C55       1.0  0.33948094855666905  0.16740105650294196  0.14400467471380782  1.0000
  C   C56       1.0  0.839480948303039  0.6674010560811746  0.14400467421948515  1.0000
  C   C57       1.0  0.33948094855666905  0.8325989437047754  0.14400467471380782  1.0000
  C   C58       1.0  0.839480948303039  0.3325989430752907  0.14400467421948515  1.0000
  C   C59       1.0  0.6605190517835396  0.8325989437047754  0.8559953254894574  1.0000
  C   C60       1.0  0.16051905160464566  0.3325989430752907  0.8559953252717588  1.0000
  C   C61       1.0  0.44486577650948556  0.0  0.8887112194335113  1.0000
  C   C62       1.0  0.9448657766883795  0.49999999957823266  0.8887112196512099  1.0000
  C   C63       1.0  0.5551342233981991  0.0  0.11128878005773266  1.0000
  C   C64       1.0  0.055134223651829135  0.49999999957823266  0.11128878055205528  1.0000
  C   C65       1.0  0.3398549261807893  0.07203348944090111  0.9033712773525361  1.0000
  C   C66       1.0  0.8398549259314392  0.5720334890191338  0.903371277570034  1.0000
  C   C67       1.0  0.6601450741594194  0.07203348944090111  0.09662872285072917  1.0000
  C   C68       1.0  0.16014507398052544  0.5720334890191338  0.09662872263303052  1.0000
  C   C69       1.0  0.6601450741594194  0.9279665107668161  0.09662872285072917  1.0000
  C   C70       1.0  0.16014507398052544  0.4279665111885836  0.09662872263303052  1.0000
  C   C71       1.0  0.3398549261807893  0.9279665107668161  0.9033712773525361  1.0000
  C   C72       1.0  0.8398549259314392  0.4279665111885836  0.903371277570034  1.0000
  C   C73       1.0  0.28639874583539005  0.1574743449907927  0.9048019692808211  1.0000
  C   C74       1.0  0.7863987460100038  0.6574743445690253  0.9048019687866992  1.0000
  C   C75       1.0  0.7136012540765747  0.1574743449907927  0.09519803092224334  1.0000
  C   C76       1.0  0.21360125389768075  0.6574743445690253  0.0951980307045447  1.0000
  C   C77       1.0  0.7136012540765747  0.8425256552169246  0.09519803092224334  1.0000
  C   C78       1.0  0.21360125389768075  0.342525655638692  0.0951980307045447  1.0000
  C   C79       1.0  0.28639874583539005  0.8425256552169246  0.9048019692808211  1.0000
  C   C80       1.0  0.7863987460100038  0.342525655638692  0.9048019687866992  1.0000
  C   C81       1.0  0.059036432908021526  0.0  0.8353070668910132  1.0000
  C   C82       1.0  0.5590364330826353  0.49999999957823266  0.8353070663968911  1.0000
  C   C83       1.0  0.9409635670039432  0.0  0.16469293331205143  1.0000
  C   C84       1.0  0.4409635668250493  0.49999999957823266  0.16469293309435273  1.0000
  C   C85       1.0  0.9995065647580286  0.0  0.8416439490455014  1.0000
  C   C86       1.0  0.4995065645834148  0.49999999957823266  0.8416439495396235  1.0000
  C   C87       1.0  0.0004934351496559908  0.0  0.15835605044574244  1.0000
  C   C88       1.0  0.50049343532855  0.49999999957823266  0.15835605066344116  1.0000
  C   C89       1.0  0.9655942286207012  0.0  0.7592933774431697  1.0000
  C   C90       1.0  0.4655942284418073  0.49999999957823266  0.7592933772254712  1.0000
  C   C91       1.0  0.034405771291263536  0.0  0.24070662275989485  1.0000
  C   C92       1.0  0.5344057714658773  0.49999999957823266  0.24070662226577283  1.0000
  C   C93       1.0  0.9910260537040547  0.0  0.6695320251813527  1.0000
  C   C94       1.0  0.4910260539534045  0.49999999957823266  0.6695320249638546  1.0000
  C   C95       1.0  0.008973946207910177  0.0  0.330467975021712  1.0000
  C   C96       1.0  0.5089739459585603  0.49999999957823266  0.33046797523921  1.0000
  C   C97       1.0  0.05032365822791206  0.0  0.6616046974515295  1.0000
  C   C98       1.0  0.5503236584068061  0.49999999957823266  0.6616046976692282  1.0000
  C   C99       1.0  0.9496763416840528  0.0  0.33839530275153507  1.0000
  C   C100      1.0  0.4496763415051587  0.49999999957823266  0.3383953025338365  1.0000
  C   C101      1.0  0.08447451940945198  0.0  0.7449396480792224  1.0000
  C   C102      1.0  0.5844745191601021  0.49999999957823266  0.7449396482967205  1.0000
  C   C103      1.0  0.9155254809307566  0.0  0.25506035212404277  1.0000
  C   C104      1.0  0.4155254807518627  0.49999999957823266  0.25506035190634413  1.0000
  C   C105      1.0  0.14533708398795012  0.0  0.7373840857767578  1.0000
  C   C106      1.0  0.6453370837386002  0.49999999957823266  0.7373840859942558  1.0000
  C   C107      1.0  0.8546629163522584  0.0  0.2626159144265074  1.0000
  C   C108      1.0  0.35466291617336454  0.49999999957823266  0.2626159142088087  1.0000
  N   N1        1.0  0.19523204566690716  0.0  0.7315907912684781  1.0000
  N   N2        1.0  0.6952320458458011  0.49999999957823266  0.7315907914861768  1.0000
  N   N3        1.0  0.8047679542407775  0.0  0.26840920822276576  1.0000
  N   N4        1.0  0.30476795406616364  0.49999999957823266  0.2684092087168878  1.0000
  O   O1        1.0  0.21617775192186098  0.0  0.2514598975920877  1.0000
  O   O2        1.0  0.7161777516682308  0.49999999957823266  0.25145989709776506  1.0000
  O   O3        1.0  0.7838222484183477  0.0  0.7485401026111774  1.0000
  O   O4        1.0  0.2838222482394537  0.49999999957823266  0.7485401023934789  1.0000
  S   S1        1.0  0.5540358161909446  0.8473275612573423  0.36767154960412934  1.0000
  S   S2        1.0  0.05403581601633069  0.3473275616791098  0.3676715500982514  1.0000
  S   S3        1.0  0.44596418371674007  0.8473275612573423  0.6323284498871145  1.0000
  S   S4        1.0  0.9459641838956341  0.3473275616791098  0.6323284501048132  1.0000
  S   S5        1.0  0.44596418371674007  0.15267243895037494  0.6323284498871145  1.0000
  S   S6        1.0  0.9459641838956341  0.6526724385286076  0.6323284501048132  1.0000
  S   S7        1.0  0.5540358161909446  0.15267243895037494  0.36767154960412934  1.0000
  S   S8        1.0  0.05403581601633069  0.6526724385286076  0.3676715500982514  1.0000
  S   S9        1.0  0.41594268069528295  0.8476161099760967  0.39581809021881187  1.0000
  S   S10       1.0  0.915942680874177  0.3476161103978641  0.3958180904365105  1.0000
  S   S11       1.0  0.5840573192124017  0.8476161099760967  0.604181909272432  1.0000
  S   S12       1.0  0.08405731903778788  0.3476161103978641  0.6041819097665541  1.0000
  S   S13       1.0  0.5840573192124017  0.1523838902316206  0.604181909272432  1.0000
  S   S14       1.0  0.08405731903778788  0.6523838898098532  0.6041819097665541  1.0000
  S   S15       1.0  0.41594268069528295  0.1523838902316206  0.39581809021881187  1.0000
  S   S16       1.0  0.915942680874177  0.6523838898098532  0.3958180904365105  1.0000
  S   S17       1.0  0.5437996616811143  0.15264192846161834  0.8747915511763752  1.0000
  S   S18       1.0  0.04379966150650046  0.652641928039851  0.8747915516704972  1.0000
  S   S19       1.0  0.4562003386548142  0.15264192846161834  0.1252084483150693  1.0000
  S   S20       1.0  0.9562003384054643  0.652641928039851  0.12520844853256735  1.0000
  S   S21       1.0  0.4562003386548142  0.847358071746099  0.1252084483150693  1.0000
  S   S22       1.0  0.9562003384054643  0.34735807216786635  0.12520844853256735  1.0000
  S   S23       1.0  0.5437996616811143  0.847358071746099  0.8747915511763752  1.0000
  S   S24       1.0  0.04379966150650046  0.34735807216786635  0.8747915516704972  1.0000
  S   S25       1.0  0.40583528561258425  0.15361011689830675  0.8961750851295465  1.0000
  S   S26       1.0  0.9058352853632343  0.6536101175277915  0.8961750853470445  1.0000
  S   S27       1.0  0.5941647142993806  0.15361011689830675  0.10382491507351818  1.0000
  S   S28       1.0  0.09416471454873043  0.6536101175277915  0.10382491485602013  1.0000
  S   S29       1.0  0.5941647142993806  0.8463898822581586  0.10382491507351818  1.0000
  S   S30       1.0  0.09416471454873043  0.3463898826799259  0.10382491485602013  1.0000
  S   S31       1.0  0.40583528561258425  0.8463898822581586  0.8961750851295465  1.0000
  S   S32       1.0  0.9058352853632343  0.3463898826799259  0.8961750853470445  1.0000
  Br  Br1       1.0  0.6468696677964754  0.49999999957823266  0.4614287053318821  1.0000
  Br  Br2       1.0  0.14686966762186157  0.0  0.46142870582600426  1.0000
  Br  Br3       1.0  0.35313033254373327  0.49999999957823266  0.5385712948713831  1.0000
  Br  Br4       1.0  0.8531303322901032  0.0  0.5385712943770604  1.0000
  Br  Br5       1.0  0.14897986692447998  0.0  0.04566341305050564  1.0000
  Br  Br6       1.0  0.6489798670990938  0.49999999957823266  0.045663412556383606  1.0000
  Br  Br7       1.0  0.8510201329874849  0.0  0.954336587152559  1.0000
  Br  Br8       1.0  0.3510201328085909  0.49999999957823266  0.9543365869348603  1.0000
