data_image0
_chemical_formula_structural       H20B4C4N2O6Cl2
_chemical_formula_sum              "H20 B4 C4 N2 O6 Cl2"
_cell_length_a       5.927422432032055
_cell_length_b       8.099129300789237
_cell_length_c       8.285701364038017
_cell_angle_alpha    110.41372701544135
_cell_angle_beta     99.60573600554694
_cell_angle_gamma    92.99687706711133

_space_group_name_H-M_alt    "P 1"
_space_group_IT_number       1

loop_
  _space_group_symop_operation_xyz
  'x, y, z'

loop_
  _atom_site_type_symbol
  _atom_site_label
  _atom_site_symmetry_multiplicity
  _atom_site_fract_x
  _atom_site_fract_y
  _atom_site_fract_z
  _atom_site_occupancy
  H   H1        1.0  0.6421489788125107  0.9733072248720225  0.26923664264719255  1.0000
  H   H2        1.0  0.3578510224471372  0.026692774892133567  0.7307633576677236  1.0000
  H   H3        1.0  0.5969928263946893  0.224084896164716  0.19864019806565392  1.0000
  H   H4        1.0  0.40300717292195776  0.7759151043386087  0.8013598009235596  1.0000
  H   H5        1.0  0.9777335446983074  0.7581860129456021  0.4527183919142102  1.0000
  H   H6        1.0  0.022266456228638  0.24181398633168352  0.5472816070870111  1.0000
  H   H7        1.0  0.9342780985365838  0.5464973457350474  0.2769024468724617  1.0000
  H   H8        1.0  0.06572190111276557  0.45350265525514794  0.7230975534304467  1.0000
  H   H9        1.0  0.14465649443640893  0.5846441505539579  0.47268130006032316  1.0000
  H   H10       1.0  0.855343506902109  0.4153558504445812  0.5273187002491837  1.0000
  H   H11       1.0  0.4427699117442444  0.49698958543047633  0.2916918039417535  1.0000
  H   H12       1.0  0.557230087905105  0.503010415559719  0.7083081963611549  1.0000
  H   H13       1.0  0.4970670819363035  0.6214337245412074  0.156913967520911  1.0000
  H   H14       1.0  0.5029329177130459  0.37856627644898794  0.8430860327819975  1.0000
  H   H15       1.0  0.24012255996070858  0.4660867581791189  0.09492523430308071  1.0000
  H   H16       1.0  0.7598774396886407  0.5339132428110764  0.9050747659998277  1.0000
  H   H17       1.0  0.1701038883433072  0.7704816409245273  0.22369327564916489  1.0000
  H   H18       1.0  0.8298961129163405  0.2295183588396288  0.7763067246657512  1.0000
  H   H19       1.0  0.36460870779937077  0.7971286514230483  0.4095623505395383  1.0000
  H   H20       1.0  0.6353912914384062  0.20287134784589328  0.5904376484550845  1.0000
  B   B1        1.0  0.8680085143151157  0.9434972025066618  0.11313288806141117  1.0000
  B   B2        1.0  0.13199148525536367  0.0565027972491505  0.8868671122469066  1.0000
  B   B3        1.0  0.8424264282421743  0.13373351935685782  0.06726247473100819  1.0000
  B   B4        1.0  0.15757357301747354  0.8662664804072984  0.932737525583908  1.0000
  C   C1        1.0  0.06138482729249314  0.6449892876510146  0.38245743461123866  1.0000
  C   C2        1.0  0.9386151739671548  0.35501071211314156  0.6175425657036774  1.0000
  C   C3        1.0  0.36461048944703434  0.5623477165981224  0.2045205521517582  1.0000
  C   C4        1.0  0.635389510123445  0.43765228315768984  0.7954794481565595  1.0000
  N   N1        1.0  0.24247266442206064  0.7070760230129584  0.3058409986722978  1.0000
  N   N2        1.0  0.7575273352272889  0.292923977977237  0.6941590016306106  1.0000
  O   O1        1.0  0.7562813551866514  0.8929128913171193  0.22243041921247506  1.0000
  O   O2        1.0  0.2437186443838281  0.10708710843869292  0.7775695810958427  1.0000
  O   O3        1.0  0.0188094987148162  0.8251157700048279  0.03817276409377724  1.0000
  O   O4        1.0  0.9811905008556633  0.17488422975098442  0.9618272362145405  1.0000
  O   O5        1.0  0.6986351555346542  0.2569245643837458  0.12756297596721602  1.0000
  O   O6        1.0  0.3013648457249936  0.7430754353804103  0.8724370243477001  1.0000
  Cl  Cl1       1.0  0.6064706129165376  0.8566371912681856  0.6543185732337151  1.0000
  Cl  Cl2       1.0  0.3935293866539417  0.14336280848762678  0.3456814270746026  1.0000
