data_image0
_chemical_formula_structural       H20B4C4N2O6Cl2
_chemical_formula_sum              "H20 B4 C4 N2 O6 Cl2"
_cell_length_a       5.392797869247831
_cell_length_b       8.476498169166124
_cell_length_c       9.10432560589512
_cell_angle_alpha    116.91040430289173
_cell_angle_beta     96.87700419952309
_cell_angle_gamma    93.92492276407702

_space_group_name_H-M_alt    "P 1"
_space_group_IT_number       1

loop_
  _space_group_symop_operation_xyz
  'x, y, z'

loop_
  _atom_site_type_symbol
  _atom_site_label
  _atom_site_symmetry_multiplicity
  _atom_site_fract_x
  _atom_site_fract_y
  _atom_site_fract_z
  _atom_site_occupancy
  H   H1        1.0  0.32492943797446966  0.1911759289502735  0.24353548080217066  1.0000
  H   H2        1.0  0.6750705617189376  0.808824072068886  0.7564645198711643  1.0000
  H   H3        1.0  0.43618781372765447  0.4692259024417625  0.2544629994786559  1.0000
  H   H4        1.0  0.5638121858539781  0.5307740973965518  0.745537001197937  1.0000
  H   H5        1.0  0.06806188040106378  0.9960412852444709  0.7754569334204083  1.0000
  H   H6        1.0  0.9319381191805688  0.003958714593843467  0.2245430672561846  1.0000
  H   H7        1.0  0.33627213766351094  0.11366418146632425  0.911539026455211  1.0000
  H   H8        1.0  0.6637278616096657  0.8863358177474996  0.0884609729715828  1.0000
  H   H9        1.0  0.9875879110339556  0.2789363679611964  0.9779905291857229  1.0000
  H   H10       1.0  0.01241208823922124  0.7210636312526274  0.022009470241070788  1.0000
  H   H11       1.0  0.9491312009056018  0.2662522317263003  0.7739285088596982  1.0000
  H   H12       1.0  0.05086879867603072  0.733747768112014  0.22607149181689473  1.0000
  H   H13       1.0  0.23033514459007165  0.3864143004619419  0.9211505901554312  1.0000
  H   H14       1.0  0.7696648547948798  0.6135856999327269  0.07884940926810442  1.0000
  H   H15       1.0  0.4146085084778008  0.9539270223098105  0.6282227096710313  1.0000
  H   H16       1.0  0.5853914926525667  0.04607297691715095  0.3717772897634043  1.0000
  H   H17       1.0  0.4884743201975777  0.1933449691913922  0.7148995821352956  1.0000
  H   H18       1.0  0.5115256790755989  0.8066550300224316  0.28510041729149804  1.0000
  H   H19       1.0  0.20449012348515588  0.07999046028623993  0.5710224380756873  1.0000
  H   H20       1.0  0.7955098758997956  0.920009540108429  0.42897756134784837  1.0000
  B   B1        1.0  0.11184876627329328  0.33627647454400345  0.4067331219819589  1.0000
  B   B2        1.0  0.888151233420114  0.6637235264751559  0.593266878691376  1.0000
  B   B3        1.0  0.17676950169951477  0.5353143427195051  0.40143068291573325  1.0000
  B   B4        1.0  0.8232304976854365  0.4646856576751638  0.5985693165078023  1.0000
  C   C1        1.0  0.0842250057710605  0.270873384299913  0.8760187014268004  1.0000
  C   C2        1.0  0.9157749957795375  0.729126616732384  0.12398129925417636  1.0000
  C   C3        1.0  0.33853983383756103  0.08074334061390295  0.6717089186428226  1.0000
  C   C4        1.0  0.6614601657440715  0.9192566592244112  0.3282910820337703  1.0000
  N   N1        1.0  0.20545014481494445  0.10564538563257565  0.8127787974951868  1.0000
  N   N2        1.0  0.794549854766688  0.8943546142057386  0.18722120318140606  1.0000
  O   O1        1.0  0.9523982743047653  0.32285681887099227  0.5107485286388976  1.0000
  O   O2        1.0  0.047601727245832726  0.6771431821613048  0.489251472042079  1.0000
  O   O3        1.0  0.19960209797566855  0.1786077713830228  0.3110953703834049  1.0000
  O   O4        1.0  0.8003979032664738  0.8213922290247839  0.6889046290477728  1.0000
  O   O5        1.0  0.34318114887661494  0.5708639822486655  0.3150862915609778  1.0000
  O   O6        1.0  0.6568188505083365  0.4291360181460034  0.6849137078625578  1.0000
  Cl  Cl1       1.0  0.3893029663440627  0.7518784107561125  0.865606776281638  1.0000
  Cl  Cl2       1.0  0.6106970332375699  0.24812158908220183  0.13439322439495502  1.0000
