data_image0
_chemical_formula_structural       H62C36N4O24I2
_chemical_formula_sum              "H62 C36 N4 O24 I2"
_cell_length_a       9.32853430299287
_cell_length_b       10.688938055341056
_cell_length_c       12.759816870528914
_cell_angle_alpha    107.81559417463863
_cell_angle_beta     104.78623511741844
_cell_angle_gamma    93.07768593343249

_space_group_name_H-M_alt    "P 1"
_space_group_IT_number       1

loop_
  _space_group_symop_operation_xyz
  'x, y, z'

loop_
  _atom_site_type_symbol
  _atom_site_label
  _atom_site_symmetry_multiplicity
  _atom_site_fract_x
  _atom_site_fract_y
  _atom_site_fract_z
  _atom_site_occupancy
  H   H1        1.0  0.17915659094928535  0.3865341702474866  0.7056424706963289  1.0000
  H   H2        1.0  0.8208434088028201  0.6134658298356858  0.29435752903847173  1.0000
  H   H3        1.0  0.16790227585670617  0.5200069275186727  0.8163777244197686  1.0000
  H   H4        1.0  0.8320977238953993  0.47999307256449947  0.18362227531503192  1.0000
  H   H5        1.0  0.01038513681149717  0.4322783799039016  0.7119214227492153  1.0000
  H   H6        1.0  0.9896148629406083  0.5677216201792707  0.28807857698558537  1.0000
  H   H7        1.0  0.3066844812291822  0.2580405233437473  0.7987621172254104  1.0000
  H   H8        1.0  0.6933155188464649  0.7419594770744252  0.2012378833683654  1.0000
  H   H9        1.0  0.2918480906941541  0.09247399371662539  0.8953162731750476  1.0000
  H   H10       1.0  0.708151909381493  0.9075260067015471  0.10468372741872814  1.0000
  H   H11       1.0  0.07681704642513329  0.06493344172648309  0.9723072632346864  1.0000
  H   H12       1.0  0.923182953274139  0.9350665574220157  0.027692736505864683  1.0000
  H   H13       1.0  0.8729805975135293  0.20991007436374015  0.9494051084565013  1.0000
  H   H14       1.0  0.12701940250928462  0.7900899251197588  0.05059489214302489  1.0000
  H   H15       1.0  0.00977664972306929  0.22734020617879658  0.43714978566395946  1.0000
  H   H16       1.0  0.9902233500290362  0.7726597939043757  0.5628502140708411  1.0000
  H   H17       1.0  0.9850116880452109  0.05380970753512551  0.4174071503994257  1.0000
  H   H18       1.0  0.01498831170689459  0.9461902925480468  0.5825928493353749  1.0000
  H   H19       1.0  0.21523375501081984  0.09922762557656349  0.5907633520056361  1.0000
  H   H20       1.0  0.7847662450648271  0.9007723748416089  0.40923664858813946  1.0000
  H   H21       1.0  0.2446691776638087  0.11586503009876993  0.46238800940954083  1.0000
  H   H22       1.0  0.7553308220882967  0.8841349699844023  0.5376119903252597  1.0000
  H   H23       1.0  0.4605396628380523  0.27156712573073805  0.5485557423828349  1.0000
  H   H24       1.0  0.5394603369140532  0.7284328743524344  0.4514442573519657  1.0000
  H   H25       1.0  0.4614845238957302  0.23846430871631616  0.6778242212842055  1.0000
  H   H26       1.0  0.5385154772511073  0.7615356917032149  0.322175779307092  1.0000
  H   H27       1.0  0.6138510988657973  0.4528279088929636  0.7183051274049391  1.0000
  H   H28       1.0  0.38614890120984974  0.547172091525209  0.28169487318883657  1.0000
  H   H29       1.0  0.4565511463842645  0.5130307648710561  0.6455727108765674  1.0000
  H   H30       1.0  0.5434488536385492  0.4869692346124429  0.3544272897229587  1.0000
  H   H31       1.0  0.5264427354052361  0.6813426554204401  0.827457377316406  1.0000
  H   H32       1.0  0.473557264670411  0.3186573449977324  0.17254262327736974  1.0000
  H   H33       1.0  0.6278907644687237  0.605827653396244  0.9241554766848051  1.0000
  H   H34       1.0  0.3721092352833817  0.39417234668692824  0.0758445230499954  1.0000
  H   H35       1.0  0.40969019432202936  0.591943200809159  0.0030209898424404945  1.0000
  H   H36       1.0  0.590309805430076  0.40805679927401334  0.9969790098923601  1.0000
  H   H37       1.0  0.4760409403387077  0.7586192408702479  0.021898400465509196  1.0000
  H   H38       1.0  0.5239590594133977  0.2413807592129244  0.9781015992692914  1.0000
  H   H39       1.0  0.31226257886142905  0.7486236853399133  0.7757338031793767  1.0000
  H   H40       1.0  0.6877374212142179  0.251376315078259  0.22426619741439885  1.0000
  H   H41       1.0  0.32396408567743745  0.8693499499665386  0.912186751816348  1.0000
  H   H42       1.0  0.6760359151458585  0.13065005011799236  0.08781324791597443  1.0000
  H   H43       1.0  0.04695304131349202  0.8087815069388413  0.8753143054195943  1.0000
  H   H44       1.0  0.9530469584386135  0.1912184931443311  0.12468569431520628  1.0000
  H   H45       1.0  0.09381456686834301  0.8772575587966257  0.7750068680485782  1.0000
  H   H46       1.0  0.9061854328309291  0.12274244035187319  0.22499313169197277  1.0000
  H   H47       1.0  0.8275978583917181  0.7557419671070932  0.6719045379138249  1.0000
  H   H48       1.0  0.17240214130755413  0.24425803204140573  0.3280954618267262  1.0000
  H   H49       1.0  0.8302185014326614  0.6604229815889165  0.7650314281097139  1.0000
  H   H50       1.0  0.16978149864298553  0.33957701882925584  0.23496857248406164  1.0000
  H   H51       1.0  0.6714601722662125  0.5457398800751878  0.5610012657462704  1.0000
  H   H52       1.0  0.3285398285570834  0.454260120009343  0.4389987339860521  1.0000
  H   H53       1.0  0.8348364149187283  0.5511926549265277  0.5135249131979123  1.0000
  H   H54       1.0  0.16516358483337723  0.4488073451566448  0.4864750865368884  1.0000
  H   H55       1.0  0.8201333688047525  0.3272021093394781  0.4417616691938999  1.0000
  H   H56       1.0  0.17986663196571026  0.6727978898103794  0.558238330544173  1.0000
  H   H57       1.0  0.6479883742217969  0.3103109589720588  0.4745036483031715  1.0000
  H   H58       1.0  0.35201162687220744  0.6896890405127988  0.5254963522938765  1.0000
  H   H59       1.0  0.7541396338112579  0.1778816163227204  0.6009737769010994  1.0000
  H   H60       1.0  0.24586036594084748  0.8221183837604519  0.39902622283370115  1.0000
  H   H61       1.0  0.7444315178700086  0.10447687107163442  0.4532310310835838  1.0000
  H   H62       1.0  0.2555684822056383  0.8955231293465381  0.5467689695101918  1.0000
  C   C1        1.0  0.10374058344324938  0.3306931854139293  0.8234041585378643  1.0000
  C   C2        1.0  0.8962594166323976  0.669306815004243  0.1765958420559112  1.0000
  C   C3        1.0  0.21330571643515733  0.24850740785139044  0.8336346457791526  1.0000
  C   C4        1.0  0.7866942833169481  0.751492592231782  0.16636535395564805  1.0000
  C   C5        1.0  0.20343356913379662  0.15427459960469014  0.8877346646855193  1.0000
  C   C6        1.0  0.7965664306183088  0.8457254004784822  0.11226533504928132  1.0000
  C   C7        1.0  0.08178430166755378  0.1382481191548617  0.9295250809350125  1.0000
  C   C8        1.0  0.9182156980845516  0.8617518809283108  0.07047491879978814  1.0000
  C   C9        1.0  0.9698154899596892  0.21775175146261871  0.9178279482317642  1.0000
  C   C10       1.0  0.030184509792416218  0.7822482486205536  0.08217205150303644  1.0000
  C   C11       1.0  0.9832486964004788  0.31492745165545893  0.8673592743198801  1.0000
  C   C12       1.0  0.016751304422817113  0.6850725484290718  0.13264072541244237  1.0000
  C   C13       1.0  0.029062553312941917  0.15347042958461765  0.4815391489317973  1.0000
  C   C14       1.0  0.9709374464391636  0.8465295704985546  0.5184608508030033  1.0000
  C   C15       1.0  0.19430647844318058  0.15825701292758634  0.5324452873700142  1.0000
  C   C16       1.0  0.8056935213089249  0.8417429871555859  0.4675547123647865  1.0000
  C   C17       1.0  0.4240690204417124  0.3041392004603966  0.6273025626527992  1.0000
  C   C18       1.0  0.5759309796339346  0.6958607999577758  0.3726974379409765  1.0000
  C   C19       1.0  0.4909148628067136  0.44621446612072646  0.6957748887863681  1.0000
  C   C20       1.0  0.5090851369453919  0.5537855339624459  0.3042251109484326  1.0000
  C   C21       1.0  0.5143488947701815  0.6129426651333512  0.8751876685018586  1.0000
  C   C22       1.0  0.4856511049819239  0.3870573349498211  0.12481233123294194  1.0000
  C   C23       1.0  0.42173373326093816  0.6618941538533679  0.9572731382648683  1.0000
  C   C24       1.0  0.5782662664911673  0.3381058462298044  0.04272686146993234  1.0000
  C   C25       1.0  0.26220846379626545  0.7750017370856791  0.8476525451697698  1.0000
  C   C26       1.0  0.7377915362793815  0.22499826333249331  0.1523474554240059  1.0000
  C   C27       1.0  0.10043709973442218  0.7907388276417674  0.8053151217975028  1.0000
  C   C28       1.0  0.8995629013595823  0.20926117184309015  0.19468487879954535  1.0000
  C   C29       1.0  0.8648380299096864  0.666417864645631  0.6901187328611225  1.0000
  C   C30       1.0  0.13516197091360954  0.33358213543889975  0.3098812668711999  1.0000
  C   C31       1.0  0.7939544724034436  0.5468343011360722  0.5863272930001769  1.0000
  C   C32       1.0  0.2060455276722034  0.4531656992821001  0.4136727075935987  1.0000
  C   C33       1.0  0.7700475202370766  0.3148146420695486  0.5082269914048125  1.0000
  C   C34       1.0  0.2299524794621956  0.6851853570789503  0.4917730083357385  1.0000
  C   C35       1.0  0.8009120217494075  0.18776633052958405  0.5325808369816014  1.0000
  C   C36       1.0  0.1990879782734064  0.812233668953915  0.4674191636179247  1.0000
  N   N1        1.0  0.1149047457329919  0.4233212754403156  0.7618546642606285  1.0000
  N   N2        1.0  0.8850952540191134  0.5766787246428566  0.23814533547417197  1.0000
  N   N3        1.0  0.8700891588600572  0.403058421509395  0.8677184763641345  1.0000
  N   N4        1.0  0.12991084083921497  0.5969415776391038  0.13228152337641658  1.0000
  O   O1        1.0  0.9095799174129446  0.5199023117609269  0.8759272871333097  1.0000
  O   O2        1.0  0.09042008233916077  0.48009768832224536  0.12407271260149097  1.0000
  O   O3        1.0  0.7422689370466748  0.3591614674985858  0.8632446580170244  1.0000
  O   O4        1.0  0.2577310627054307  0.6408385325845867  0.13675534171777623  1.0000
  O   O5        1.0  0.957082268282158  0.17877965248953878  0.5710378759938609  1.0000
  O   O6        1.0  0.04291773141711415  0.8212203466589602  0.42896212374669024  1.0000
  O   O7        1.0  0.2632271653874574  0.2937479616335492  0.5955372160484345  1.0000
  O   O8        1.0  0.736772834364648  0.706252038449623  0.4044627836863662  1.0000
  O   O9        1.0  0.4418857088072176  0.48474167311475547  0.7968700538221474  1.0000
  O   O10       1.0  0.5581142908920546  0.5152583260337434  0.20312994591840375  1.0000
  O   O11       1.0  0.2704486807506731  0.6733054058576224  0.9005278923517441  1.0000
  O   O12       1.0  0.7295513190014323  0.32669459422555  0.09947210738305651  1.0000
  O   O13       1.0  0.024071343649284347  0.6727889017978549  0.7138084757204249  1.0000
  O   O14       1.0  0.9759286564263627  0.3272110986203175  0.2861915248733507  1.0000
  O   O15       1.0  0.8274074628393078  0.4275191590759887  0.6111414660065254  1.0000
  O   O16       1.0  0.17259253685996448  0.5724808400725102  0.38885853373402557  1.0000
  O   O17       1.0  0.5754891127206632  0.9637848933959968  0.25097517901197636  1.0000
  O   O18       1.0  0.424510886978609  0.03621510575250193  0.7490248207285748  1.0000
  O   O19       1.0  0.30929538646022514  0.0032385189071048926  0.08921680592686002  1.0000
  O   O20       1.0  0.6907046132918804  0.9967614811760674  0.9107831938079407  1.0000
  O   O21       1.0  0.4530148846497909  0.21483983153731884  0.30839055401247406  1.0000
  O   O22       1.0  0.5469851161735052  0.785160168547212  0.6916094457198485  1.0000
  O   O23       1.0  0.28784275744972754  0.9739835493808283  0.30730124887398125  1.0000
  O   O24       1.0  0.7121572426259194  0.026016451037344106  0.6926987517197942  1.0000
  I   I1        1.0  0.4058027376097104  0.03774845451908456  0.2385689344790592  1.0000
  I   I2        1.0  0.5941972632135856  0.9622515455654462  0.7614310652532632  1.0000
