data_image0
_chemical_formula_structural       H40C88F16I8
_chemical_formula_sum              "H40 C88 F16 I8"
_cell_length_a       8.272499240188642
_cell_length_b       18.013280003524724
_cell_length_c       12.851776134675172
_cell_angle_alpha    90.0
_cell_angle_beta     104.9535835278959
_cell_angle_gamma    90.0

_space_group_name_H-M_alt    "P 1"
_space_group_IT_number       1

loop_
  _space_group_symop_operation_xyz
  'x, y, z'

loop_
  _atom_site_type_symbol
  _atom_site_label
  _atom_site_symmetry_multiplicity
  _atom_site_fract_x
  _atom_site_fract_y
  _atom_site_fract_z
  _atom_site_occupancy
  H   H1        1.0  0.2381943626204129  0.38341459793266797  0.8577484837349452  1.0000
  H   H2        1.0  0.76180563706318  0.883414598389977  0.6422515162018013  1.0000
  H   H3        1.0  0.7618056370721643  0.6165854018716584  0.1422515166133409  1.0000
  H   H4        1.0  0.2381943623019099  0.11658540196949521  0.35774848334111414  1.0000
  H   H5        1.0  0.5326219043153231  0.7696215973596866  0.6438567956191915  1.0000
  H   H6        1.0  0.46737809536826985  0.26962159745752345  0.8561432043175552  1.0000
  H   H7        1.0  0.46737809537725405  0.23037840244463972  0.35614320472909466  1.0000
  H   H8        1.0  0.5326219052043977  0.7303784023468028  0.14385679522227202  1.0000
  H   H9        1.0  0.12216619649410983  0.37004811942609467  0.6605543385390538  1.0000
  H   H10       1.0  0.8778338031894831  0.8700481193282578  0.8394456613976929  1.0000
  H   H11       1.0  0.8778338028709802  0.6299518809333777  0.3394456610038618  1.0000
  H   H12       1.0  0.12216619650309411  0.1299518804760685  0.1605543389505933  1.0000
  H   H13       1.0  0.9229256314244317  0.46295928328256686  0.5568000447719578  1.0000
  H   H14       1.0  0.07707436825916121  0.9629592831847299  0.9431999551647888  1.0000
  H   H15       1.0  0.07707436826814555  0.5370407165217594  0.4431999555763284  1.0000
  H   H16       1.0  0.9229256311059286  0.0370407166195963  0.056800044378126725  1.0000
  H   H17       1.0  0.1654288460335602  0.49263625881924855  0.9547815501582027  1.0000
  H   H18       1.0  0.8345711536500328  0.9926362587214118  0.545218449778544  1.0000
  H   H19       1.0  0.834571153659017  0.5073637415402238  0.04521845019008353  1.0000
  H   H20       1.0  0.1654288457150572  0.007363741082914652  0.4547815497643716  1.0000
  H   H21       1.0  0.6710503683818896  0.7872323584169691  0.85734680328029  1.0000
  H   H22       1.0  0.32894963130170324  0.287232358514806  0.6426531966564566  1.0000
  H   H23       1.0  0.3289496321907779  0.21276764138735713  0.14265319625953723  1.0000
  H   H24       1.0  0.671050368390874  0.7127676418446663  0.3573468036918294  1.0000
  H   H25       1.0  0.6960754237504654  0.5815286770621604  0.4893190431085221  1.0000
  H   H26       1.0  0.3039245759510962  0.08152867715999718  0.010680957651303585  1.0000
  H   H27       1.0  0.3039245759421119  0.418471322742166  0.5106809572397641  1.0000
  H   H28       1.0  0.696075423741481  0.9184713226443291  0.9893190426969825  1.0000
  H   H29       1.0  0.5191320515282738  0.6927620032308499  0.4842728190680323  1.0000
  H   H30       1.0  0.4808679478458005  0.19276200332868676  0.015727180886422706  1.0000
  H   H31       1.0  0.4808679478368162  0.3072379965734764  0.5157271804748832  1.0000
  H   H32       1.0  0.5191320518467768  0.8072379970307855  0.9842728194618634  1.0000
  H   H33       1.0  0.8706493315425916  0.7393843684989004  0.019661525661622836  1.0000
  H   H34       1.0  0.12935066783148252  0.2393843685967373  0.4803384742928323  1.0000
  H   H35       1.0  0.12935066814998553  0.26061563130542587  0.9803384746866632  1.0000
  H   H36       1.0  0.8706493315336075  0.7606156312075891  0.5196615252500834  1.0000
  H   H37       1.0  0.03923809410036202  0.6260694486397412  0.016181177778996338  1.0000
  H   H38       1.0  0.9607619064812898  0.12606944873757805  0.4838188221723703  1.0000
  H   H39       1.0  0.9607619064723055  0.3739305511645851  0.9838188217608308  1.0000
  H   H40       1.0  0.03923809441886501  0.8739305516218943  0.5161811781728274  1.0000
  C   C1        1.0  0.28176680330610776  0.8187170513706692  0.26587668891459526  1.0000
  C   C2        1.0  0.7182331960679664  0.31871705146850604  0.2341233110398598  1.0000
  C   C3        1.0  0.7182331963864694  0.18128294843365714  0.7341233114336909  1.0000
  C   C4        1.0  0.2817668036246108  0.6812829483358203  0.7658766893084263  1.0000
  C   C5        1.0  0.26998603014126443  0.8591705911955879  0.17178558016081738  1.0000
  C   C6        1.0  0.7300139692328099  0.35917059129342477  0.32821441979363775  1.0000
  C   C7        1.0  0.7300139692238256  0.14082940916388437  0.8282144193820982  1.0000
  C   C8        1.0  0.2699860304597673  0.6408294090660475  0.6717855805546484  1.0000
  C   C9        1.0  0.4662465966553206  0.9146920769996337  0.3636370853206211  1.0000
  C   C10       1.0  0.5337534027187536  0.4146920765423246  0.136362914633834  1.0000
  C   C11       1.0  0.5337534030372566  0.08530792335983858  0.6363629150276651  1.0000
  C   C12       1.0  0.46624659664633633  0.5853079232620017  0.8636370849090816  1.0000
  C   C13       1.0  0.45460547650256866  0.955310080486885  0.26952652275158  1.0000
  C   C14       1.0  0.5453945228715056  0.45531008058472183  0.23047347720287506  1.0000
  C   C15       1.0  0.5453945228625213  0.04468991987258736  0.7304734767913356  1.0000
  C   C16       1.0  0.4546054768210717  0.5446899197747506  0.7695265231454113  1.0000
  C   C17       1.0  0.37907763102319736  0.8483920911133148  0.36199572628872134  1.0000
  C   C18       1.0  0.6209223695584544  0.34839209121115167  0.13800427366264528  1.0000
  C   C19       1.0  0.6209223695494701  0.1516079086910115  0.6380042732511058  1.0000
  C   C20       1.0  0.3790776301341228  0.6516079085931747  0.8619957266856408  1.0000
  C   C21       1.0  0.35487479121639204  0.9262621391959256  0.17386253619430214  1.0000
  C   C22       1.0  0.6451252084851694  0.42626213929376233  0.32613746456552345  1.0000
  C   C23       1.0  0.6451252084761852  0.07373786060840082  0.8261374641539839  1.0000
  C   C24       1.0  0.3548747912074079  0.573737860510564  0.6738625357827628  1.0000
  C   C25       1.0  0.15260509031031896  0.42526715836877294  0.8134633569717065  1.0000
  C   C26       1.0  0.8473949105808515  0.925267158270936  0.6865366429619517  1.0000
  C   C27       1.0  0.8473949105898358  0.5747328419906993  0.18653664337349124  1.0000
  C   C28       1.0  0.152605089991816  0.07473284153339022  0.3134633565778755  1.0000
  C   C29       1.0  0.003850501577040641  0.5401903699990217  0.8103667446713878  1.0000
  C   C30       1.0  0.9961494996416173  0.04019036954171256  0.6896332560676409  1.0000
  C   C31       1.0  0.9961494993231141  0.4598096303604506  0.18963325567380993  1.0000
  C   C32       1.0  0.003850501258537623  0.9598096302626138  0.3103667442775567  1.0000
  C   C33       1.0  0.613565681704324  0.7211530652639683  0.6502558741429224  1.0000
  C   C34       1.0  0.38643431918684645  0.2211530653618051  0.8497441257907359  1.0000
  C   C35       1.0  0.3864343191958307  0.2788469345403581  0.34974412620227535  1.0000
  C   C36       1.0  0.6135656813858209  0.7788469344425213  0.1502558737490913  1.0000
  C   C37       1.0  0.08627496274889505  0.4175119988435413  0.7020583902580319  1.0000
  C   C38       1.0  0.9137250372621851  0.9175119993008504  0.7979416104840852  1.0000
  C   C39       1.0  0.9137250369436821  0.5824880009607851  0.29794161009025416  1.0000
  C   C40       1.0  0.08627496363796969  0.08248800105862189  0.20205838986111246  1.0000
  C   C41       1.0  0.9756975911693648  0.4704496836967945  0.6429319154851968  1.0000
  C   C42       1.0  0.02430240851422802  0.9704496835989578  0.8570680844515497  1.0000
  C   C43       1.0  0.024302408523212377  0.5295503161075318  0.35706808486308933  1.0000
  C   C44       1.0  0.9756975908508617  0.029550316205368663  0.1429319150913657  1.0000
  C   C45       1.0  0.11233953599613043  0.48690434714187514  0.8683172175315688  1.0000
  C   C46       1.0  0.8876604648950401  0.9869043470440384  0.6316827824020894  1.0000
  C   C47       1.0  0.8876604649040243  0.5130956526624512  0.1316827828136289  1.0000
  C   C48       1.0  0.11233953567762749  0.013095652760288045  0.3683172171377378  1.0000
  C   C49       1.0  0.7239882560568563  0.701694458062425  0.7509752213782857  1.0000
  C   C50       1.0  0.27601174395422395  0.2016944581602619  0.7490247793638317  1.0000
  C   C51       1.0  0.27601174363572095  0.29830554174190127  0.24902477897000055  1.0000
  C   C52       1.0  0.7239882557383532  0.7983055416440644  0.2509752209844545  1.0000
  C   C53       1.0  0.8220415347460194  0.6378822040045811  0.7515094656412347  1.0000
  C   C54       1.0  0.1779584649375735  0.13788220410241797  0.7484905342955119  1.0000
  C   C55       1.0  0.17795846494655782  0.3621177957997452  0.24849053470705154  1.0000
  C   C56       1.0  0.8220415344275164  0.8621177957019084  0.25150946524740353  1.0000
  C   C57       1.0  0.9335364270301827  0.5315906874331765  0.6967197797519723  1.0000
  C   C58       1.0  0.06646357386098779  0.031590687531013316  0.803280220181686  1.0000
  C   C59       1.0  0.06646357386997206  0.4684093123711498  0.3032802205932255  1.0000
  C   C60       1.0  0.9335364267116798  0.9684093128284591  0.19671977935814122  1.0000
  C   C61       1.0  0.7445638823539938  0.7378317206749324  0.851926449692474  1.0000
  C   C62       1.0  0.255436117329599  0.23783172077276926  0.6480735502442726  1.0000
  C   C63       1.0  0.25543611701109603  0.26216827968453993  0.14807354985044152  1.0000
  C   C64       1.0  0.7445638823629783  0.7621682795867031  0.3519264501040136  1.0000
  C   C65       1.0  0.8171989394612559  0.5935072128955998  0.6594641908280647  1.0000
  C   C66       1.0  0.18280106054982426  0.09350721299343666  0.8405358099140523  1.0000
  C   C67       1.0  0.18280106143889885  0.4064927869087265  0.3405358095171329  1.0000
  C   C68       1.0  0.817198939142753  0.9064927868108896  0.15946419043423374  1.0000
  C   C69       1.0  0.9347803063355449  0.6083184466047186  0.8450012742817113  1.0000
  C   C70       1.0  0.06521969334804799  0.10831844614740943  0.6549987256550353  1.0000
  C   C71       1.0  0.0652196933570323  0.3916815537547537  0.1549987260665748  1.0000
  C   C72       1.0  0.9347803072246196  0.8916815536569168  0.34500127388479196  1.0000
  C   C73       1.0  0.7082520128427712  0.6137811657752831  0.5626246112288563  1.0000
  C   C74       1.0  0.29174798684082165  0.11378116587311987  0.9373753887078903  1.0000
  C   C75       1.0  0.29174798652231865  0.3862188340290433  0.4373753883140592  1.0000
  C   C76       1.0  0.7082520128517554  0.8862188339312065  0.06262461164039587  1.0000
  C   C77       1.0  0.6069141052296623  0.6776793969566546  0.5600885124624657  1.0000
  C   C78       1.0  0.39308589445393055  0.17767939705449143  0.9399114874742809  1.0000
  C   C79       1.0  0.39308589413542755  0.3223206028476718  0.43991148708044975  1.0000
  C   C80       1.0  0.6069141052386466  0.822320602749835  0.06008851287400526  1.0000
  C   C81       1.0  0.8567592422838698  0.7103641561945498  0.9434332867393578  1.0000
  C   C82       1.0  0.1432407586073008  0.21036415629238672  0.5565667131943005  1.0000
  C   C83       1.0  0.14324075828879776  0.2896358441649224  0.05656671280046942  1.0000
  C   C84       1.0  0.856759242292854  0.7896358440670856  0.44343328715089725  1.0000
  C   C85       1.0  0.9535964455900586  0.6454692786502457  0.9416761308815881  1.0000
  C   C86       1.0  0.046403554093534374  0.14546927874808258  0.5583238690551586  1.0000
  C   C87       1.0  0.04640355498260897  0.3545307211540806  0.058323868658239214  1.0000
  C   C88       1.0  0.9535964455990429  0.8545307210562437  0.4416761312931275  1.0000
  F   F1        1.0  0.39109813017653045  0.8130090914666493  0.4565409765329393  1.0000
  F   F2        1.0  0.6089018691975437  0.3130090915644863  0.04345902342151577  1.0000
  F   F3        1.0  0.6089018695160467  0.1869909083376769  0.5434590238153468  1.0000
  F   F4        1.0  0.3910981301675462  0.68699090823984  0.9565409761213998  1.0000
  F   F5        1.0  0.17708509218848834  0.8336496422118357  0.07602262690286306  1.0000
  F   F6        1.0  0.8229149071855859  0.3336496423096725  0.42397737305159205  1.0000
  F   F7        1.0  0.8229149071766017  0.1663503575924907  0.9239773726400524  1.0000
  F   F8        1.0  0.17708509250699134  0.6663503574946539  0.5760226272966941  1.0000
  F   F9        1.0  0.5632122450035906  0.9386732719799744  0.4588598385509884  1.0000
  F   F10       1.0  0.4367877543704837  0.43867327207781137  0.04114016140346667  1.0000
  F   F11       1.0  0.43678775436149936  0.06132672782435182  0.5411401609919271  1.0000
  F   F12       1.0  0.5632122453220936  0.561326728281661  0.9588598389448195  1.0000
  F   F13       1.0  0.34029345293803637  0.962330799088675  0.07960412565927184  1.0000
  F   F14       1.0  0.6597065476436154  0.4623307991865119  0.4203958742920948  1.0000
  F   F15       1.0  0.6597065467545409  0.03766920071565125  0.9203958746890143  1.0000
  F   F16       1.0  0.34029345325653937  0.5376692011729604  0.579604126053103  1.0000
  I   I1        1.0  0.15955687111061642  0.7169321249363254  0.26322826891364104  1.0000
  I   I2        1.0  0.8404431282634578  0.21693212447901628  0.23677173104081403  1.0000
  I   I3        1.0  0.8404431285819609  0.2830678754231469  0.7367717314346452  1.0000
  I   I4        1.0  0.15955687110163214  0.7830678753253101  0.7632282685021016  1.0000
  I   I5        1.0  0.5796217731852374  0.056297331180194136  0.27069013431049344  1.0000
  I   I6        1.0  0.42037822739641434  0.5562973310823572  0.22930986564087327  1.0000
  I   I7        1.0  0.4203782277149173  0.9437026686241322  0.7293098660347043  1.0000
  I   I8        1.0  0.5796217719686756  0.44370266872196906  0.7706901339020423  1.0000
