data_image0
_chemical_formula_structural       H20C44F8Br4
_chemical_formula_sum              "H20 C44 F8 Br4"
_cell_length_a       7.098316406232599
_cell_length_b       8.270923376689224
_cell_length_c       14.752462773169785
_cell_angle_alpha    90.81342677445974
_cell_angle_beta     91.73963653641555
_cell_angle_gamma    91.14423904061697

_space_group_name_H-M_alt    "P 1"
_space_group_IT_number       1

loop_
  _space_group_symop_operation_xyz
  'x, y, z'

loop_
  _atom_site_type_symbol
  _atom_site_label
  _atom_site_symmetry_multiplicity
  _atom_site_fract_x
  _atom_site_fract_y
  _atom_site_fract_z
  _atom_site_occupancy
  H   H1        1.0  0.34663206552930304  0.18637106869397815  0.23622144326026714  1.0000
  H   H2        1.0  0.6533679347217147  0.813628930951525  0.7637785565253017  1.0000
  H   H3        1.0  0.6385238428868382  0.5900197805019233  0.48231335201039716  1.0000
  H   H4        1.0  0.36147615736417954  0.40998021914357974  0.5176866477751717  1.0000
  H   H5        1.0  0.4866477644840731  0.3422146421965216  0.3669314801278799  1.0000
  H   H6        1.0  0.5133522357669446  0.6577853574489816  0.633068519657689  1.0000
  H   H7        1.0  0.28672335033181406  0.30888526385914783  0.08757808569403061  1.0000
  H   H8        1.0  0.7132766485441621  0.6911147370002487  0.9124219140948163  1.0000
  H   H9        1.0  0.5008405260360697  0.02001604919587998  0.1268044110965381  1.0000
  H   H10       1.0  0.49915947426481744  0.9799839504673928  0.8731955893672632  1.0000
  H   H11       1.0  0.6515555432387794  0.09937107483604712  0.3015608973079232  1.0000
  H   H12       1.0  0.3484444556037888  0.9006289248140601  0.6984391024808544  1.0000
  H   H13       1.0  0.29144718564070854  0.5840013947738912  0.9901930110568797  1.0000
  H   H14       1.0  0.7085528146103092  0.4159986048716118  0.009806988728689226  1.0000
  H   H15       1.0  0.7538127269853188  0.8506975050741545  0.5520684046022614  1.0000
  H   H16       1.0  0.246187273299107  0.14930249578063787  0.4479315951833766  1.0000
  H   H17       1.0  0.3662852927302376  0.8750354034353146  0.9907432944779072  1.0000
  H   H18       1.0  0.6337147061956079  0.12496459744185161  0.009256705989172043  1.0000
  H   H19       1.0  0.7611011906054126  0.10007140529090397  0.46374044609644816  1.0000
  H   H20       1.0  0.23889880832043286  0.8999285955862623  0.5362595543706309  1.0000
  C   C1        1.0  0.9954611302513922  0.840252198704515  0.1956138530498093  1.0000
  C   C2        1.0  0.004538869999625563  0.15974780094098817  0.8043861467357596  1.0000
  C   C3        1.0  0.061090266612473104  0.6971940024193076  0.3349042533677197  1.0000
  C   C4        1.0  0.9389097336719526  0.30280599843548484  0.6650957464179182  1.0000
  C   C5        1.0  0.925464869956466  0.5533522752081295  0.20548068570420688  1.0000
  C   C6        1.0  0.07453513029455171  0.4466477244373736  0.794519314081362  1.0000
  C   C7        1.0  0.9891085546920672  0.553056971156062  0.2959089105284173  1.0000
  C   C8        1.0  0.010891445592358637  0.44694302969873045  0.7040910892572209  1.0000
  C   C9        1.0  0.9291498448115466  0.6952724632002724  0.1557741226685228  1.0000
  C   C10       1.0  0.07085015403102146  0.3047275364498349  0.8442258771202548  1.0000
  C   C11       1.0  0.06382681417730399  0.8391135741654628  0.2853756115018603  1.0000
  C   C12       1.0  0.9361731861071216  0.16088642668932956  0.7146243882837777  1.0000
  C   C13       1.0  0.49616898743313365  0.5669961854433412  0.2932333035320661  1.0000
  C   C14       1.0  0.503831012817884  0.4330038142021619  0.7067666962535027  1.0000
  C   C15       1.0  0.5710570159382126  0.6989385772748208  0.3527680512525302  1.0000
  C   C16       1.0  0.4289429843128051  0.30106142237068223  0.6472319485330388  1.0000
  C   C17       1.0  0.3818885523600847  0.31382673620243384  0.22743130702634085  1.0000
  C   C18       1.0  0.618111447890933  0.6861732634430692  0.772568692759228  1.0000
  C   C19       1.0  0.6362480067886657  0.7006697772187502  0.44284589538127833  1.0000
  C   C20       1.0  0.3637519935456295  0.29933022365381196  0.557154105082592  1.0000
  C   C21       1.0  0.5744740017647845  0.8444185529416506  0.30119884058850294  1.0000
  C   C22       1.0  0.4255259984862333  0.15558144670385246  0.698801159197066  1.0000
  C   C23       1.0  0.5015329424172952  0.8049340720445569  0.20881663053515828  1.0000
  C   C24       1.0  0.49846705783372247  0.19506592760094604  0.7911833692504107  1.0000
  C   C25       1.0  0.45930647623616233  0.4034078095279952  0.30304506516370044  1.0000
  C   C26       1.0  0.5406935226064058  0.596592190122112  0.6969549346250773  1.0000
  C   C27       1.0  0.34500454900685484  0.382903191267305  0.14380508763172453  1.0000
  C   C28       1.0  0.654995451244163  0.617096808378198  0.8561949121538444  1.0000
  C   C29       1.0  0.4701465718126835  0.8906263207059023  0.1300503746933921  1.0000
  C   C30       1.0  0.5298534284383343  0.10937367893960069  0.8699496250921768  1.0000
  C   C31       1.0  0.45683217119258634  0.6367648376760039  0.20743969976780618  1.0000
  C   C32       1.0  0.5431678290584314  0.3632351619694992  0.7925603000177626  1.0000
  C   C33       1.0  0.6439871173563249  0.9885799246802222  0.34060504800063873  1.0000
  C   C34       1.0  0.35601288292810085  0.01142007617457017  0.6593949517849994  1.0000
  C   C35       1.0  0.382441915371615  0.550772976537435  0.1312839368636487  1.0000
  C   C36       1.0  0.6175580849128107  0.4492270243173576  0.8687160629219893  1.0000
  C   C37       1.0  0.35048930310561355  0.6425280765883646  0.051591390509542784  1.0000
  C   C38       1.0  0.6495106971952733  0.35747192307490816  0.9484086099542584  1.0000
  C   C39       1.0  0.7036685859741229  0.8467443728958354  0.4816820080277383  1.0000
  C   C40       1.0  0.2963314143601722  0.1532556279767268  0.5183179924361321  1.0000
  C   C41       1.0  0.3939037908853879  0.8068399168958985  0.05220020620555066  1.0000
  C   C42       1.0  0.6060962093990379  0.19316008395889395  0.9477997935800874  1.0000
  C   C43       1.0  0.7080421968774575  0.9885708058141313  0.43124991429381104  1.0000
  C   C44       1.0  0.29195780345683736  0.011429195058430963  0.5687500861700594  1.0000
  F   F1        1.0  0.1275306761555607  0.7008545952881203  0.42156313997215555  1.0000
  F   F2        1.0  0.8724693240954571  0.29914540435738285  0.5784368598134133  1.0000
  F   F3        1.0  0.8569826818594919  0.4161530094851264  0.16486693229509594  1.0000
  F   F4        1.0  0.14301731839152595  0.5838469901603768  0.8351330674904729  1.0000
  F   F5        1.0  0.8653064872478521  0.6902024213764658  0.06853494467140231  1.0000
  F   F6        1.0  0.1346935130031657  0.3097975782690373  0.9314650551141666  1.0000
  F   F7        1.0  0.13168900007243936  0.9767902235948618  0.32551726780682355  1.0000
  F   F8        1.0  0.8683110002284475  0.023209776068411105  0.6744827326569777  1.0000
  Br  Br1       1.0  0.9853849817939276  0.03381327283974283  0.13150234895509275  1.0000
  Br  Br2       1.0  0.01461501845709011  0.9661867268057602  0.8684976508304761  1.0000
  Br  Br3       1.0  0.9736889697951164  0.3652861399766385  0.36479559886779245  1.0000
  Br  Br4       1.0  0.02631103048930932  0.634713860878154  0.6352044009178457  1.0000
