data_image0
_chemical_formula_structural       H22C24N6O14
_chemical_formula_sum              "H22 C24 N6 O14"
_cell_length_a       6.668922069852503
_cell_length_b       7.4508952506795545
_cell_length_c       14.365122854080894
_cell_angle_alpha    88.21011615621426
_cell_angle_beta     90.22673142692821
_cell_angle_gamma    114.44952659244352

_space_group_name_H-M_alt    "P 1"
_space_group_IT_number       1

loop_
  _space_group_symop_operation_xyz
  'x, y, z'

loop_
  _atom_site_type_symbol
  _atom_site_label
  _atom_site_symmetry_multiplicity
  _atom_site_fract_x
  _atom_site_fract_y
  _atom_site_fract_z
  _atom_site_occupancy
  H   H1        1.0  0.08819323695201753  0.5953859659243342  0.19110832024833102  1.0000
  H   H2        1.0  0.9118067634967092  0.40461403466462503  0.8088916799511703  1.0000
  H   H3        1.0  0.27680366340480983  0.8160231475934506  0.29713954450542124  1.0000
  H   H4        1.0  0.7231963370506843  0.1839768529946951  0.7028604549979832  1.0000
  H   H5        1.0  0.41678832625197687  0.8826368770003866  0.45704145619902803  1.0000
  H   H6        1.0  0.5832116720189868  0.11736312210691442  0.5429585440175603  1.0000
  H   H7        1.0  0.1445713012486289  0.25718297615086627  0.5238722228011782  1.0000
  H   H8        1.0  0.8554286985248418  0.7428170229629987  0.47612777742137863  1.0000
  H   H9        1.0  0.12322129443040931  0.7412785503898257  0.9708971806303964  1.0000
  H   H10       1.0  0.8767787060183174  0.25872145019913345  0.02910281956910478  1.0000
  H   H11       1.0  0.8253299228229463  0.7455079726814173  0.8648363761828424  1.0000
  H   H12       1.0  0.17467007762578035  0.25449202790754194  0.13516362401665888  1.0000
  H   H13       1.0  0.46615192427128954  0.7741742548402513  0.11090274858011658  1.0000
  H   H14       1.0  0.5338480755021813  0.22582574427361382  0.8890972516424402  1.0000
  H   H15       1.0  0.7887094646180555  0.7741147706429832  0.20694750735400258  1.0000
  H   H16       1.0  0.21129053583067123  0.22588522994597607  0.7930524928454987  1.0000
  H   H17       1.0  0.6121656110682866  0.9082849854063255  0.8088802328084643  1.0000
  H   H18       1.0  0.3878343893804401  0.09171501518263372  0.1911197673910369  1.0000
  H   H19       1.0  0.31625256864819656  0.7787581052951863  0.8054295270869628  1.0000
  H   H20       1.0  0.6837474318072976  0.22124189529295937  0.19457047241644165  1.0000
  H   H21       1.0  0.4829135279655599  0.6430521093661894  0.8049794067899982  1.0000
  H   H22       1.0  0.5170864724831666  0.35694789122276976  0.19502059340950298  1.0000
  C   C1        1.0  0.14045819420162076  0.4983052090435529  0.3154495699584605  1.0000
  C   C2        1.0  0.85954180557185  0.5016947900703121  0.6845504302640962  1.0000
  C   C3        1.0  0.2529321863500478  0.6941868148732216  0.3460970393184682  1.0000
  C   C4        1.0  0.7470678140986788  0.30581318571573757  0.6539029608810332  1.0000
  C   C5        1.0  0.3289043821408328  0.7315402009386529  0.4358484946476981  1.0000
  C   C6        1.0  0.6710956176326379  0.26845979817521204  0.5641515055748587  1.0000
  C   C7        1.0  0.2900539803489051  0.5731936903741602  0.49947131249937005  1.0000
  C   C8        1.0  0.7099460200998216  0.42680631021479903  0.5005286877001313  1.0000
  C   C9        1.0  0.17530013530666752  0.3788298435356122  0.4738926998985288  1.0000
  C   C10       1.0  0.8246998651420591  0.621170157053347  0.5261073003009725  1.0000
  C   C11       1.0  0.10545352593025992  0.34274691319513584  0.38246410320175456  1.0000
  C   C12       1.0  0.8945464723474712  0.6572530859113518  0.6175358963187368  1.0000
  C   C13       1.0  0.9726400387783505  0.7469619038023017  0.9962964786285686  1.0000
  C   C14       1.0  0.0273599616703761  0.25303809678665756  0.0037035215709326436  1.0000
  C   C15       1.0  0.8058360699894862  0.7493709185060962  0.9397680815443072  1.0000
  C   C16       1.0  0.1941639304592405  0.2506290820828631  0.06023191865519396  1.0000
  C   C17       1.0  0.6197057667260969  0.7588744079076193  0.9805861760358278  1.0000
  C   C18       1.0  0.38029423372262977  0.2411255926813399  0.019413824163673463  1.0000
  C   C19       1.0  0.6086957950645494  0.7647493476873156  0.07825710233016571  1.0000
  C   C20       1.0  0.39130420470892135  0.23525065142654936  0.9217428978923912  1.0000
  C   C21       1.0  0.7807783523871865  0.7637081008380971  0.1315167110783885  1.0000
  C   C22       1.0  0.21922164738628408  0.23629189827576771  0.8684832891441683  1.0000
  C   C23       1.0  0.4688465859743622  0.7742742087229735  0.8309325201114095  1.0000
  C   C24       1.0  0.5311534144743644  0.2257257918659858  0.16906748008809178  1.0000
  N   N1        1.0  0.9877065966154254  0.13776632237298386  0.3578111998598824  1.0000
  N   N2        1.0  0.0122934023307943  0.8622336782094115  0.6421888003336502  1.0000
  N   N3        1.0  0.36780530388211435  0.6109680821484805  0.5941049284383877  1.0000
  N   N4        1.0  0.6321946965733797  0.389031918439665  0.4058950710650166  1.0000
  N   N5        1.0  0.9603258616423669  0.75589959574453  0.09016024484045344  1.0000
  N   N6        1.0  0.03967413813110386  0.2441004033693351  0.9098397553821034  1.0000
  O   O1        1.0  0.06392857198724042  0.4599203756583085  0.23043169590367404  1.0000
  O   O2        1.0  0.9360714262837233  0.5400796234489926  0.7695683043129141  1.0000
  O   O3        1.0  0.011345903588040001  0.08981069441741915  0.2778379546990024  1.0000
  O   O4        1.0  0.9886540968674541  0.9101893061707266  0.722162044804402  1.0000
  O   O5        1.0  0.8699041280046291  0.02047776182929801  0.41908217990753255  1.0000
  O   O6        1.0  0.13009587244409748  0.9795222387596612  0.5809178202919687  1.0000
  O   O7        1.0  0.47188318005873636  0.7863100670044155  0.6162077634107628  1.0000
  O   O8        1.0  0.5281168203899903  0.21368993358454372  0.3837922367887385  1.0000
  O   O9        1.0  0.32847170103890544  0.4675255813684752  0.6491921863410566  1.0000
  O   O10       1.0  0.6715282994098212  0.5324744192204839  0.35080781385844473  1.0000
  O   O11       1.0  0.13249583251061206  0.7656135854422224  0.14190496913418407  1.0000
  O   O12       1.0  0.8675041679381145  0.2343864151467367  0.8580950310653173  1.0000
  O   O13       1.0  0.44904393213366245  0.7631589025186472  0.9315994910186299  1.0000
  O   O14       1.0  0.5509560683150642  0.2368410980703121  0.06840050918087136  1.0000
