data_image0
_chemical_formula_structural       H18C46N4F22S2
_chemical_formula_sum              "H18 C46 N4 F22 S2"
_cell_length_a       7.540707934795353
_cell_length_b       10.739189232496235
_cell_length_c       13.003529645031547
_cell_angle_alpha    83.50113813026111
_cell_angle_beta     87.47622495887984
_cell_angle_gamma    77.59179750983466

_space_group_name_H-M_alt    "P 1"
_space_group_IT_number       1

loop_
  _space_group_symop_operation_xyz
  'x, y, z'

loop_
  _atom_site_type_symbol
  _atom_site_label
  _atom_site_symmetry_multiplicity
  _atom_site_fract_x
  _atom_site_fract_y
  _atom_site_fract_z
  _atom_site_occupancy
  H   H1        1.0  0.12477148006493756  0.4233818861435214  0.09119096254774349  1.0000
  H   H2        1.0  0.8752285208187769  0.5766181143965955  0.9088090370471013  1.0000
  H   H3        1.0  0.0003537647718314889  0.5161424461507892  0.18407830714558732  1.0000
  H   H4        1.0  0.999646236392982  0.4838575534339074  0.8159216933031629  1.0000
  H   H5        1.0  0.8923141133132432  0.42217846540934356  0.113502594321589  1.0000
  H   H6        1.0  0.10768588757047123  0.5778215351307733  0.8864974052732559  1.0000
  H   H7        1.0  0.8405333701393938  0.23012868886272647  0.1995609901844663  1.0000
  H   H8        1.0  0.15946662969542874  0.769871310723688  0.8004390095302555  1.0000
  H   H9        1.0  0.9054546053514324  0.04935063264280863  0.33799663297041443  1.0000
  H   H10       1.0  0.0945453955333277  0.9506493679007414  0.6620033673930987  1.0000
  H   H11       1.0  0.16069295538286438  0.03304939664456415  0.45780666203278864  1.0000
  H   H12       1.0  0.8393070441729508  0.9669506039041367  0.5421933383653647  1.0000
  H   H13       1.0  0.3996623163473794  0.28762111293117487  0.48028337280694045  1.0000
  H   H14       1.0  0.600337684816388  0.7123788866500886  0.5197166268731414  1.0000
  H   H15       1.0  0.5284546539933  0.1618330410475347  0.4165931050407208  1.0000
  H   H16       1.0  0.47154534556251526  0.8381669595011662  0.5834068953574326  1.0000
  H   H17       1.0  0.3888107589167007  0.1256320906029592  0.5241601313410055  1.0000
  H   H18       1.0  0.6111892419670137  0.8743679099371576  0.4758398682538394  1.0000
  C   C1        1.0  0.2099120143991971  0.30026868823325426  0.3013986468830604  1.0000
  C   C2        1.0  0.7900879864845172  0.6997313123068627  0.6986013527117844  1.0000
  C   C3        1.0  0.06249870152691065  0.3131978857116114  0.23449530783016445  1.0000
  C   C4        1.0  0.9375012993568036  0.6868021148285054  0.7655046917646803  1.0000
  C   C5        1.0  0.01816942668896272  0.42390202937655697  0.1517882099382511  1.0000
  C   C6        1.0  0.9818305731469056  0.5760979702132906  0.8482117905451393  1.0000
  C   C7        1.0  0.9542217822576133  0.22177984008865195  0.25046112085570615  1.0000
  C   C8        1.0  0.04577821757720922  0.7782201594977626  0.7495388788590156  1.0000
  C   C9        1.0  0.9900761747792952  0.12049423981178907  0.3289261441373031  1.0000
  C   C10       1.0  0.009923825056573205  0.8795057597780584  0.6710738563460873  1.0000
  C   C11       1.0  0.13276160950956656  0.1117473811947332  0.39593491391296254  1.0000
  C   C12       1.0  0.8672383900462487  0.8882526193539676  0.6040650864851909  1.0000
  C   C13       1.0  0.2425214479937257  0.20229768646194826  0.38491308364175697  1.0000
  C   C14       1.0  0.7574785518421426  0.7977023131278992  0.6150869168416333  1.0000
  C   C15       1.0  0.39701919522357526  0.19353598698526814  0.45566542247456693  1.0000
  C   C16       1.0  0.602980805941238  0.8064640125994285  0.5443345779741834  1.0000
  C   C17       1.0  0.41817488095781513  0.23293115523050023  0.08903111832792839  1.0000
  C   C18       1.0  0.5818251202059523  0.7670688443507632  0.9109688813521534  1.0000
  C   C19       1.0  0.32129412409027247  0.22846733798026675  0.998858039577034  1.0000
  C   C20       1.0  0.6787058754655428  0.7715326625684341  0.0011419608211193884  1.0000
  C   C21       1.0  0.2581494705890051  0.12189936114730969  0.9817583796259406  1.0000
  C   C22       1.0  0.7418505302957551  0.8781006393962402  0.018241620737572573  1.0000
  C   C23       1.0  0.28733255979517325  0.010301029824391081  0.0534428116161115  1.0000
  C   C24       1.0  0.7126674400406948  0.9896989697654566  0.9465571888672788  1.0000
  C   C25       1.0  0.22493108129470704  0.8985774253533254  0.03914783339681246  1.0000
  C   C26       1.0  0.7750689195890074  0.10142257518679136  0.9608521661980323  1.0000
  C   C27       1.0  0.25669866969755234  0.7920008010915139  0.11076864616736153  1.0000
  C   C28       1.0  0.7433013298582628  0.20799919945718706  0.8892313542307918  1.0000
  C   C29       1.0  0.3559102449740825  0.7919428264368075  0.2000101280494856  1.0000
  C   C30       1.0  0.6440897548617859  0.2080571731530399  0.7999898724339046  1.0000
  C   C31       1.0  0.421285938796323  0.8982842357371693  0.2162941427324708  1.0000
  C   C32       1.0  0.5787140610395453  0.10171576385267828  0.7837058577509196  1.0000
  C   C33       1.0  0.389914245519946  0.010156479738723002  0.14461905097601796  1.0000
  C   C34       1.0  0.6100857543159223  0.9898435198511245  0.8553809495073723  1.0000
  C   C35       1.0  0.45427827359350476  0.12150061753471798  0.1572519012598974  1.0000
  C   C36       1.0  0.5457217262413178  0.8784993820516964  0.8427480984548243  1.0000
  C   C37       1.0  0.07144345420263525  0.49310611486059475  0.5367932503280219  1.0000
  C   C38       1.0  0.9285565469621782  0.5068938847241019  0.4632067501207283  1.0000
  C   C39       1.0  0.176688293383779  0.588308142375513  0.5306019257848632  1.0000
  C   C40       1.0  0.8233117077810344  0.4116918572091836  0.46939807466388705  1.0000
  C   C41       1.0  0.14216270932872313  0.6935258407082127  0.4578046413754325  1.0000
  C   C42       1.0  0.8578372902260464  0.306474159837055  0.5421953582540523  1.0000
  C   C43       1.0  0.003931217565840183  0.7065030992079636  0.3857277651125199  1.0000
  C   C44       1.0  0.9960687822700284  0.29349690038188386  0.6142722353708704  1.0000
  C   C45       1.0  0.0992559144771597  0.3850816710124612  0.6121175694463104  1.0000
  C   C46       1.0  0.9007440850776098  0.6149183295328066  0.3878824301831745  1.0000
  N   N1        1.0  0.32572213043596354  0.387843012344425  0.2900161516866426  1.0000
  N   N2        1.0  0.6742778693988589  0.6121569872419894  0.7099838480280791  1.0000
  N   N3        1.0  0.481911857613  0.34195667207702113  0.10121036205160501  1.0000
  N   N4        1.0  0.5180881422218224  0.6580433275093934  0.8987896376631168  1.0000
  F   F1        1.0  0.28993183626052654  0.33280019863615085  0.9284143218141336  1.0000
  F   F2        1.0  0.7100681635753416  0.6671998009536968  0.07158567866925675  1.0000
  F   F3        1.0  0.1678065266875975  0.1258274715229075  0.8934376416353306  1.0000
  F   F4        1.0  0.8321934728671719  0.8741725290223602  0.10656235799415438  1.0000
  F   F5        1.0  0.13330271522594409  0.8925442486020447  0.9533903924894079  1.0000
  F   F6        1.0  0.8666972846088783  0.10745575098436985  0.04660960722531384  1.0000
  F   F7        1.0  0.1946547171813141  0.6868994298071551  0.09622157621436703  1.0000
  F   F8        1.0  0.8053452839834991  0.31310056977754147  0.9037784242343831  1.0000
  F   F9        1.0  0.386023584997383  0.6863311197151667  0.2684846193476047  1.0000
  F   F10       1.0  0.6139764148374395  0.31366887987124775  0.731515380367117  1.0000
  F   F11       1.0  0.5158076309025323  0.8929884560216198  0.3028075822353128  1.0000
  F   F12       1.0  0.48419236865223697  0.10701154452364799  0.6971924173941721  1.0000
  F   F13       1.0  0.5620053384248882  0.12089875968548268  0.23817148951900866  1.0000
  F   F14       1.0  0.43799466113092694  0.8791012408632182  0.7618285108791446  1.0000
  F   F15       1.0  0.31424241668170666  0.5784827991585072  0.596069049913139  1.0000
  F   F16       1.0  0.6857575831531159  0.4215172004279072  0.4039309498015828  1.0000
  F   F17       1.0  0.23948656076549155  0.7852196862058166  0.45388156556549397  1.0000
  F   F18       1.0  0.760513440118223  0.2147803143343002  0.5461184340293508  1.0000
  F   F19       1.0  0.9744069529325169  0.809899789527579  0.31467786714755325  1.0000
  F   F20       1.0  0.02559304662329839  0.19010021102112193  0.6853221332506002  1.0000
  F   F21       1.0  0.22883987789917803  0.368358538292275  0.6837492528666225  1.0000
  F   F22       1.0  0.7711601219356444  0.6316414612941395  0.3162507468480994  1.0000
  S   S1        1.0  0.4547110874945829  0.4158367662187115  0.19952001337281497  1.0000
  S   S2        1.0  0.5452889120601864  0.5841632343265563  0.8004799862566698  1.0000
