data_image0
_chemical_formula_structural       H20C44N8F12S4
_chemical_formula_sum              "H20 C44 N8 F12 S4"
_cell_length_a       6.128116516775141
_cell_length_b       7.360965107757876
_cell_length_c       21.744078259191618
_cell_angle_alpha    90.0
_cell_angle_beta     90.97216250361463
_cell_angle_gamma    90.0

_space_group_name_H-M_alt    "P 1"
_space_group_IT_number       1

loop_
  _space_group_symop_operation_xyz
  'x, y, z'

loop_
  _atom_site_type_symbol
  _atom_site_label
  _atom_site_symmetry_multiplicity
  _atom_site_fract_x
  _atom_site_fract_y
  _atom_site_fract_z
  _atom_site_occupancy
  H   H1        1.0  0.1223548750752381  0.27711052017488996  0.19309039429840474  1.0000
  H   H2        1.0  0.8776451256324355  0.7771105210064471  0.8069096059802091  1.0000
  H   H3        1.0  0.8736997865179849  0.38361011207946094  0.10774496478971098  1.0000
  H   H4        1.0  0.12630021418968854  0.8836101115525005  0.8922550354889028  1.0000
  H   H5        1.0  0.5116623911954631  0.5172269185174397  0.1324364668108665  1.0000
  H   H6        1.0  0.48833760951018407  0.017226919044400265  0.8675635330078427  1.0000
  H   H7        1.0  0.40236989875726353  0.5496190188072111  0.24125496944562505  1.0000
  H   H8        1.0  0.5976301003163274  0.049619017975654  0.7587450303658511  1.0000
  H   H9        1.0  0.6482697987303354  0.44311230555384507  0.3258609818954292  1.0000
  H   H10       1.0  0.3517302003432553  0.943112306385402  0.674139017916047  1.0000
  H   H11       1.0  0.4646215860910802  0.13551448151122134  0.45513578838168456  1.0000
  H   H12       1.0  0.535378414614567  0.6355144809842609  0.5448642114370248  1.0000
  H   H13       1.0  0.41359442751438885  0.06864204253155386  0.5664481889930376  1.0000
  H   H14       1.0  0.5864055731912583  0.5686420420045933  0.43355181082567157  1.0000
  H   H15       1.0  0.7073965902346602  0.14474699912339903  0.6424525108535315  1.0000
  H   H16       1.0  0.29260341047301336  0.6447469985964385  0.35754748942508247  1.0000
  H   H17       1.0  0.049961497488863686  0.2933413565191736  0.6079043627984836  1.0000
  H   H18       1.0  0.950038501584727  0.7933413559922131  0.3920956370129926  1.0000
  H   H19       1.0  0.09843864446246767  0.3634358268021825  0.4971092277852117  1.0000
  H   H20       1.0  0.9015613562452058  0.863435826275222  0.5028907724934021  1.0000
  C   C1        1.0  0.901570988738537  0.35333851905626396  0.2644922726788387  1.0000
  C   C2        1.0  0.0984290103370801  0.8533385185293034  0.7355077275925422  1.0000
  C   C3        1.0  0.9643631715473746  0.3384045914542781  0.20238835738463934  1.0000
  C   C4        1.0  0.03563682915827275  0.8384045909273176  0.7976116424340698  1.0000
  C   C5        1.0  0.8244953730300765  0.39712379928539027  0.15544509228269912  1.0000
  C   C6        1.0  0.1755046276775969  0.8971238001169474  0.8445549079959148  1.0000
  C   C7        1.0  0.6216032472828746  0.472841571593887  0.16925545467878172  1.0000
  C   C8        1.0  0.3783967534227727  0.9728415710669265  0.8307445451399273  1.0000
  C   C9        1.0  0.5603600331526662  0.491041727149414  0.2305357923853251  1.0000
  C   C10       1.0  0.4396399675529811  0.991041727980971  0.7694642074333842  1.0000
  C   C11       1.0  0.6973987901532711  0.43193841615266937  0.278213527260239  1.0000
  C   C12       1.0  0.3026012089203197  0.9319384156257088  0.7217864725512372  1.0000
  C   C13       1.0  0.7868274886264137  0.2478475353832651  0.4688895786015945  1.0000
  C   C14       1.0  0.21317251207923354  0.7478475348563045  0.5311104212171147  1.0000
  C   C15       1.0  0.5913711351883411  0.16884081119881333  0.48906257740717934  1.0000
  C   C16       1.0  0.4086288638852499  0.6688408120303704  0.5109374224042968  1.0000
  C   C17       1.0  0.5642036151157428  0.13161238041720474  0.5512146453750493  1.0000
  C   C18       1.0  0.4357963839598743  0.6316123798902442  0.44878535489633153  1.0000
  C   C19       1.0  0.7296380972496114  0.17400112366381426  0.5939525694049684  1.0000
  C   C20       1.0  0.27036190345603583  0.6740011244953713  0.40604743041374064  1.0000
  C   C21       1.0  0.9224659363677872  0.25646730589856465  0.5745011524420789  1.0000
  C   C22       1.0  0.07753406270782998  0.7564673067301216  0.4254988478293019  1.0000
  C   C23       1.0  0.9512138006836441  0.2942039309108533  0.512320419720302  1.0000
  C   C24       1.0  0.04878619838994667  0.7942039303838928  0.48767958009117424  1.0000
  C   C25       1.0  0.23341588822266354  0.4080153045196027  0.7521240307366233  1.0000
  C   C26       1.0  0.76658411248501  0.9080153039926422  0.2478759695419907  1.0000
  C   C27       1.0  0.037635013980308184  0.3271851183565234  0.7724890813882256  1.0000
  C   C28       1.0  0.9623649867253391  0.8271851178295629  0.22751091843048377  1.0000
  C   C29       1.0  0.9940621717404219  0.3212711465657701  0.833780016213488  1.0000
  C   C30       1.0  0.005937827333168919  0.8212711460388096  0.16621998359798826  1.0000
  C   C31       1.0  0.14045880445452313  0.3930105220782901  0.8799673039665056  1.0000
  C   C32       1.0  0.8595411962531503  0.8930105215513297  0.1200326963121083  1.0000
  C   C33       1.0  0.09377396643763042  0.3895472058382591  0.9431788156592361  1.0000
  C   C34       1.0  0.9062260342700431  0.889547206669816  0.05682118461937787  1.0000
  C   C35       1.0  0.240634873391293  0.4553522290803191  0.986811362087476  1.0000
  C   C36       1.0  0.7593651256843241  0.9553522285533586  0.013188638183904821  1.0000
  C   C37       1.0  0.4396173550384775  0.5286191393434317  0.9687054458140494  1.0000
  C   C38       1.0  0.5603826440371396  0.02861913851187479  0.031294554457331376  1.0000
  C   C39       1.0  0.4884715264116528  0.5375841458383614  0.9068216860912596  1.0000
  C   C40       1.0  0.5115284742939945  0.03758414500680446  0.09317831372744972  1.0000
  C   C41       1.0  0.34406062500736945  0.4707886220446393  0.8613811948969461  1.0000
  C   C42       1.0  0.655939375700304  0.9707886215176789  0.13861880538166768  1.0000
  C   C43       1.0  0.3878415793092298  0.47872606763019465  0.7966036134823782  1.0000
  C   C44       1.0  0.612158419764361  0.9787260671032341  0.20339638632909812  1.0000
  N   N1        1.0  0.05189756463614525  0.28807869334486064  0.30757729979119486  1.0000
  N   N2        1.0  0.948102436069502  0.7880786928179001  0.6924227000275144  1.0000
  N   N3        1.0  0.804678085906504  0.28009467098642543  0.40557219582857634  1.0000
  N   N4        1.0  0.19532191316708686  0.7800946704594649  0.5944278039828998  1.0000
  N   N5        1.0  0.294780357385093  0.4264808994531728  0.6935434823444198  1.0000
  N   N6        1.0  0.7052196433205542  0.9264808989262123  0.3064565174742894  1.0000
  N   N7        1.0  0.5651694190730027  0.5499223105586754  0.7701182577769274  1.0000
  N   N8        1.0  0.4348305816326446  0.04992231108563589  0.2298817420417817  1.0000
  F   F1        1.0  0.8967585109308515  0.2542370548703811  0.7311141997314093  1.0000
  F   F2        1.0  0.10324148977682206  0.7542370543434207  0.2688858005472045  1.0000
  F   F3        1.0  0.8068896737686739  0.24120019100875764  0.8514101977070159  1.0000
  F   F4        1.0  0.19311032693697325  0.7412001904817972  0.14858980211169343  1.0000
  F   F5        1.0  0.9052579013972333  0.3197688014468746  0.9645566223443994  1.0000
  F   F6        1.0  0.09474209767838378  0.819768800919914  0.035443377926981455  1.0000
  F   F7        1.0  0.1958452065964144  0.44503849726817024  0.04701967503032792  1.0000
  F   F8        1.0  0.8041547941092329  0.9450384980997273  0.9529803247883813  1.0000
  F   F9        1.0  0.5825684126664493  0.5878661461714317  0.012099530062439807  1.0000
  F   F10       1.0  0.4174315864071415  0.08786614669839221  0.9879004697490363  1.0000
  F   F11       1.0  0.6810608350300213  0.6122707544490436  0.8916152950039796  1.0000
  F   F12       1.0  0.3189391656756259  0.11227075497600408  0.10838470481472957  1.0000
  S   S1        1.0  0.034474451407296845  0.24700395034936032  0.37674958989248053  1.0000
  S   S2        1.0  0.9655255492983504  0.7470039498223997  0.6232504099262286  1.0000
  S   S3        1.0  0.5300143424207516  0.528540737939329  0.6965573923255375  1.0000
  S   S4        1.0  0.46998565665486536  0.028540737107771982  0.30344260794584343  1.0000
