data_image0
_chemical_formula_structural       H50C48N4O6F48I8
_chemical_formula_sum              "H50 C48 N4 O6 F48 I8"
_cell_length_a       10.907331315522397
_cell_length_b       10.961086957684072
_cell_length_c       16.741762118246804
_cell_angle_alpha    90.0428911227221
_cell_angle_beta     83.08116536514969
_cell_angle_gamma    84.5339445740157

_space_group_name_H-M_alt    "P 1"
_space_group_IT_number       1

loop_
  _space_group_symop_operation_xyz
  'x, y, z'

loop_
  _atom_site_type_symbol
  _atom_site_label
  _atom_site_symmetry_multiplicity
  _atom_site_fract_x
  _atom_site_fract_y
  _atom_site_fract_z
  _atom_site_occupancy
  H   H1        1.0  0.7306478019463806  0.846060121853004  0.3866677991535521  1.0000
  H   H2        1.0  0.2693521975703237  0.15393987824072813  0.6133322009367185  1.0000
  H   H3        1.0  0.6690484689994505  0.5939727437452114  0.433468615402779  1.0000
  H   H4        1.0  0.3309515314339672  0.4060272563468744  0.56653138468887  1.0000
  H   H5        1.0  0.6376018081961219  0.6756943876521708  0.3450252337470103  1.0000
  H   H6        1.0  0.3623981913205824  0.3243056124415614  0.6549747663432602  1.0000
  H   H7        1.0  0.4460776590507336  0.7045191010864503  0.43249804859355473  1.0000
  H   H8        1.0  0.553922341382684  0.2954808990056354  0.5675019514980942  1.0000
  H   H9        1.0  0.52002748789176  0.7267925838193402  0.5188837170147121  1.0000
  H   H10       1.0  0.4799725126279636  0.27320741535623894  0.48111628307563153  1.0000
  H   H11       1.0  0.38764750979772017  0.9466004509195153  0.37214166102685947  1.0000
  H   H12       1.0  0.6123524906356975  0.05339954917257051  0.6278583390647896  1.0000
  H   H13       1.0  0.5174763975626133  0.8538158487671494  0.3226014042767572  1.0000
  H   H14       1.0  0.48252360287080437  0.14618415132493623  0.6773985958148918  1.0000
  H   H15       1.0  0.5170492887414688  0.09270129368329794  0.3096901045568714  1.0000
  H   H16       1.0  0.48295071077523566  0.9072987064104343  0.690309895533399  1.0000
  H   H17       1.0  0.5431869205983154  0.08890504918546595  0.41243209369802164  1.0000
  H   H18       1.0  0.45681307891838896  0.9110949509082661  0.5875679063922489  1.0000
  H   H19       1.0  0.7192190136339556  0.18711934764717167  0.3700558656991384  1.0000
  H   H20       1.0  0.2807809867994623  0.812880652444914  0.6299441343925105  1.0000
  H   H21       1.0  0.8544853790564739  0.09481612209486513  0.3302502695413702  1.0000
  H   H22       1.0  0.14551462137694396  0.9051838779972208  0.6697497305502789  1.0000
  H   H23       1.0  0.8302702506797189  0.13404152437012767  0.48216454225898914  1.0000
  H   H24       1.0  0.16972974883698544  0.8659584757236045  0.5178354578312814  1.0000
  H   H25       1.0  0.709566536042016  0.03407452567943404  0.48952203170788106  1.0000
  H   H26       1.0  0.29043346439140166  0.9659254744126518  0.510477968383768  1.0000
  H   H27       1.0  0.8711127125216859  0.9075643893059918  0.5651452374574548  1.0000
  H   H28       1.0  0.12888728791173182  0.09243561078609396  0.43485476263419415  1.0000
  H   H29       1.0  0.9674602180893993  0.8073139713901959  0.49594973925257263  1.0000
  H   H30       1.0  0.03253978142730486  0.19268602870353632  0.504050260837698  1.0000
  H   H31       1.0  0.6827493918399155  0.8367809712696143  0.5276616266405788  1.0000
  H   H32       1.0  0.31725060859350224  0.16321902882247147  0.4723383734510701  1.0000
  H   H33       1.0  0.7864947350027212  0.7010847758661707  0.5313048298865312  1.0000
  H   H34       1.0  0.21350526543069645  0.2989152242259151  0.468695170205118  1.0000
  H   H35       1.0  0.8986230384375785  0.6173138149312626  0.3986283660608978  1.0000
  H   H36       1.0  0.10137696199583933  0.38268618516082326  0.6013716340307513  1.0000
  H   H37       1.0  0.9397062484010155  0.766731575082829  0.3724137196660049  1.0000
  H   H38       1.0  0.06029375203240219  0.23326842500925685  0.6275862804256441  1.0000
  H   H39       1.0  0.9475576916505704  0.6642302868053521  0.24631163662285366  1.0000
  H   H40       1.0  0.05244230786613391  0.3357697132883801  0.7536883634674169  1.0000
  H   H41       1.0  0.810615513007434  0.5924486897822059  0.27433464758120096  1.0000
  H   H42       1.0  0.18938448742598377  0.40755131030988  0.7256653525104481  1.0000
  H   H43       1.0  0.8697603870137283  0.8830400436892677  0.16540544348208028  1.0000
  H   H44       1.0  0.13023961341968943  0.11695995640281799  0.8345945566095687  1.0000
  H   H45       1.0  0.9066308769474554  0.8961022642184603  0.26611007475970494  1.0000
  H   H46       1.0  0.09336912256924902  0.10389773587527193  0.7338899253305656  1.0000
  H   H47       1.0  0.7544720219608436  0.07201190277955591  0.2179956978934672  1.0000
  H   H48       1.0  0.24552797775642632  0.9279880963883168  0.7820043015937647  1.0000
  H   H49       1.0  0.6468847388157439  0.9601474736563039  0.2197959262733678  1.0000
  H   H50       1.0  0.3531152618182394  0.03985252550992227  0.7802040732152427  1.0000
  C   C1        1.0  0.6453390329665322  0.685171703352286  0.40916501116374737  1.0000
  C   C2        1.0  0.35466096655017215  0.3148282967414462  0.5908349889265232  1.0000
  C   C3        1.0  0.5246141764644559  0.7452643861595853  0.4542261552266337  1.0000
  C   C4        1.0  0.47538582305224847  0.25473561393414673  0.5457738448636369  1.0000
  C   C5        1.0  0.4884369200943798  0.9227813856073694  0.3707799657046112  1.0000
  C   C6        1.0  0.5115630803390379  0.0772186144847163  0.6292200343870378  1.0000
  C   C7        1.0  0.5575699340118355  0.035641577924425134  0.3559577413889836  1.0000
  C   C8        1.0  0.4424300655048688  0.9643584221693071  0.6440422587012871  1.0000
  C   C9        1.0  0.7657579217155466  0.09305872918185794  0.36884679447384444  1.0000
  C   C10       1.0  0.2342420787178711  0.9069412709102278  0.6311532056178046  1.0000
  C   C11       1.0  0.7945033059512797  0.057370418231932056  0.4524165622544778  1.0000
  C   C12       1.0  0.20549669448213792  0.9426295818601538  0.5475834378371712  1.0000
  C   C13       1.0  0.8791739587164817  0.8656389725128072  0.5046235205515738  1.0000
  C   C14       1.0  0.12082604171693608  0.1343610275792786  0.49537647954007524  1.0000
  C   C15       1.0  0.7701639431606288  0.7884174804121262  0.5003432526935027  1.0000
  C   C16       1.0  0.22983605727278894  0.21158251967995945  0.4996567473981463  1.0000
  C   C17       1.0  0.8699230401360339  0.702430621587503  0.36849349268123266  1.0000
  C   C18       1.0  0.13007695938067024  0.2975693785062291  0.6315065074090379  1.0000
  C   C19       1.0  0.854515336128383  0.6772429555561961  0.2806656764888409  1.0000
  C   C20       1.0  0.14548466441929425  0.3227570445265367  0.7193343230010748  1.0000
  C   C21       1.0  0.8310243812752468  0.8840460826045579  0.22942643312046254  1.0000
  C   C22       1.0  0.16897561915817091  0.11595391748752804  0.7705735669711865  1.0000
  C   C23       1.0  0.727435797757591  0.9864203005307624  0.24705265982663863  1.0000
  C   C24       1.0  0.27256420267582665  0.013579699561323306  0.7529473402650104  1.0000
  C   C25       1.0  0.9086736506912381  0.7069745530433962  0.7795556298198755  1.0000
  C   C26       1.0  0.0913263489397258  0.2930254470409831  0.22044436966866174  1.0000
  C   C27       1.0  0.8731541191186318  0.5958276309222018  0.8329491382212006  1.0000
  C   C28       1.0  0.1268458803980727  0.40417236917153043  0.16705086186906995  1.0000
  C   C29       1.0  0.808116549470777  0.6299359142436548  0.9201750178146154  1.0000
  C   C30       1.0  0.19188345004592736  0.37006408585007733  0.07982498227565517  1.0000
  C   C31       1.0  0.7749026077756586  0.5174942622661561  0.9748124816819843  1.0000
  C   C32       1.0  0.2250973917410458  0.48250573782757616  0.025187518408286397  1.0000
  C   C33       1.0  0.6897561829679134  0.5567836911802152  0.055290265213842255  1.0000
  C   C34       1.0  0.31024381654879096  0.44321630891351693  0.9447097348764284  1.0000
  C   C35       1.0  0.6768119513159725  0.4507668750420881  0.11849897943765547  1.0000
  C   C36       1.0  0.3231880482007318  0.549233125051644  0.881501020652615  1.0000
  C   C37       1.0  0.5717625788382429  0.48173688926069774  0.19027883932656864  1.0000
  C   C38       1.0  0.42823742076476745  0.5182631099165277  0.8097211607623966  1.0000
  C   C39       1.0  0.5697457580124636  0.39161395542901783  0.2622542628746968  1.0000
  C   C40       1.0  0.43025424150424063  0.6083860446647144  0.7377457372155739  1.0000
  C   C41       1.0  0.2065184656350406  0.8608124973039849  0.19498780809719687  1.0000
  C   C42       1.0  0.7934815338816636  0.1391875027897473  0.8050121919930737  1.0000
  C   C43       1.0  0.34136127734609584  0.88322283226125  0.15953800316972186  1.0000
  C   C44       1.0  0.6586387221706085  0.11677716783248233  0.8404619969205486  1.0000
  C   C45       1.0  0.3561449078837461  0.9354621375808602  0.07163294579000574  1.0000
  C   C46       1.0  0.6438550916329582  0.06453786251287214  0.9283670543002649  1.0000
  C   C47       1.0  0.4856093128993407  0.9870403940389064  0.046297602745914525  1.0000
  C   C48       1.0  0.5143906876483367  0.012959606043826243  0.9537023967440011  1.0000
  N   N1        1.0  0.7523259675888592  0.7603720790652052  0.41477730114251654  1.0000
  N   N2        1.0  0.24767403284455858  0.2396279210268805  0.5852226989491325  1.0000
  N   N3        1.0  0.6921414139965889  0.004181194796030484  0.33459257579669516  1.0000
  N   N4        1.0  0.30785858552011547  0.9958188052977017  0.6654074242935755  1.0000
  O   O1        1.0  0.5142228018175604  0.8751427253843542  0.4475807623746873  1.0000
  O   O2        1.0  0.4857771986158571  0.12485727470773149  0.5524192377169617  1.0000
  O   O3        1.0  0.8874782915728193  0.9545304695504064  0.443053200787104  1.0000
  O   O4        1.0  0.11252170886059826  0.04546953054167925  0.556946799304545  1.0000
  O   O5        1.0  0.7770426287183871  0.7714799408550431  0.24815583715069597  1.0000
  O   O6        1.0  0.22295737079831715  0.22852005923868912  0.7518441629395746  1.0000
  F   F1        1.0  0.8029555988119785  0.7796363104417391  0.7692411215379432  1.0000
  F   F2        1.0  0.19704440070472568  0.22036368965199307  0.23075887855232738  1.0000
  F   F3        1.0  0.9833963894108771  0.7756026531442025  0.8171309958190731  1.0000
  F   F4        1.0  0.016603611108846547  0.22439734603137654  0.1828690042712707  1.0000
  F   F5        1.0  0.9785362833833837  0.520659910410595  0.8405813470322533  1.0000
  F   F6        1.0  0.021463717050034012  0.4793400896814908  0.15941865305939568  1.0000
  F   F7        1.0  0.7964160178187084  0.5331597859050716  0.7931756167583768  1.0000
  F   F8        1.0  0.20358398169799607  0.4668402141886605  0.20682438333189385  1.0000
  F   F9        1.0  0.7010237767298513  0.7025982763234829  0.9135995937472157  1.0000
  F   F10       1.0  0.2989762239041319  0.29740172284274335  0.08640040574139461  1.0000
  F   F11       1.0  0.8856186986086452  0.6949254359692999  0.9579295579262789  1.0000
  F   F12       1.0  0.11438130090805908  0.30507456412443223  0.04207044216399169  1.0000
  F   F13       1.0  0.8823450090715891  0.45633149076655577  0.9936383009059614  1.0000
  F   F14       1.0  0.11765499044511518  0.5436685093271765  0.006361699184309016  1.0000
  F   F15       1.0  0.714982270601817  0.4398403729056512  0.9332277143158442  1.0000
  F   F16       1.0  0.28501772983160073  0.5601596271864345  0.06677228577580487  1.0000
  F   F17       1.0  0.5743529117836633  0.5968227719699905  0.03680403549808832  1.0000
  F   F18       1.0  0.4256470886497542  0.40317722812209533  0.9631959645935606  1.0000
  F   F19       1.0  0.7381812445344986  0.6509341553526028  0.09002578912339271  1.0000
  F   F20       1.0  0.2618187550964653  0.34906584473177643  0.9099742103651445  1.0000
  F   F21       1.0  0.7870851003190894  0.4275646068787038  0.14895717958257854  1.0000
  F   F22       1.0  0.21291489919761503  0.5724353932150285  0.851042820507692  1.0000
  F   F23       1.0  0.6518780407598519  0.3473975231027842  0.08062714491504286  1.0000
  F   F24       1.0  0.3481219596735657  0.6526024769893015  0.9193728551766062  1.0000
  F   F25       1.0  0.46022930289055625  0.48364189010996356  0.16137965944865065  1.0000
  F   F26       1.0  0.5397706966261482  0.5163581099837686  0.8386203406416199  1.0000
  F   F27       1.0  0.5849946384376509  0.5960871732518203  0.21933039901433118  1.0000
  F   F28       1.0  0.4150053610790535  0.4039128268419119  0.7806696010759394  1.0000
  F   F29       1.0  0.6782934823699649  0.38931351504134437  0.29578049095430703  1.0000
  F   F30       1.0  0.3217065171467396  0.6106864850523879  0.7042195091359635  1.0000
  F   F31       1.0  0.5604920613979416  0.27596582102102307  0.23424443218311722  1.0000
  F   F32       1.0  0.43950793903547597  0.7240341790710626  0.7657555679085318  1.0000
  F   F33       1.0  0.13573767883809515  0.9704132364072356  0.20621705122305942  1.0000
  F   F34       1.0  0.8642623216816284  0.029586762768343627  0.7937829488672843  1.0000
  F   F35       1.0  0.15549337105342978  0.7935090684428415  0.14089084365071483  1.0000
  F   F36       1.0  0.8445066285495806  0.20649093073438402  0.8591091564382505  1.0000
  F   F37       1.0  0.4138089824360055  0.7746551099988425  0.15880233269534738  1.0000
  F   F38       1.0  0.5861910170806988  0.22534489009488973  0.8411976673949232  1.0000
  F   F39       1.0  0.38415387163546305  0.9636944330442523  0.21002327531760878  1.0000
  F   F40       1.0  0.6158461279955011  0.03630556704012695  0.7899767241709285  1.0000
  F   F41       1.0  0.2651852275535113  0.02844936955965211  0.06575564391677953  1.0000
  F   F42       1.0  0.7348147728799062  0.9715506305324336  0.9342443561748696  1.0000
  F   F43       1.0  0.3406347073575597  0.8435169187211725  0.02016283906451331  1.0000
  F   F44       1.0  0.6593652931901177  0.1564830813615603  0.9798371604254023  1.0000
  F   F45       1.0  0.5781660437142642  0.9046663770095168  0.06743760282340147  1.0000
  F   F46       1.0  0.4218339558024402  0.0953336230842153  0.9325623972668691  1.0000
  F   F47       1.0  0.48640118848374425  0.09348245660279075  0.08824470617136658  1.0000
  F   F48       1.0  0.5135988119496735  0.906517543489295  0.9117552939202824  1.0000
  I   I1        1.0  0.17953381817806108  0.5936130860980274  0.4795882976571749  1.0000
  I   I2        1.0  0.8204661813386432  0.4063869139957048  0.5204117024330956  1.0000
  I   I3        1.0  0.41313372409126903  0.45216143420876936  0.3541451879138471  1.0000
  I   I4        1.0  0.5868662763421485  0.5478385658833165  0.6458548121778019  1.0000
  I   I5        1.0  0.005994192301635518  0.6482212741200278  0.6604991983097687  1.0000
  I   I6        1.0  0.9940058081317823  0.35177872597205784  0.3395008017818803  1.0000
  I   I7        1.0  0.2027206202289146  0.7626743859161926  0.3106049948859361  1.0000
  I   I8        1.0  0.7972793802045032  0.2373256141758931  0.6893950052057128  1.0000
