data_image0
_chemical_formula_structural       H50C36N4O6F24I8
_chemical_formula_sum              "H50 C36 N4 O6 F24 I8"
_cell_length_a       10.761347012281451
_cell_length_b       11.020171238671974
_cell_length_c       13.375179179062481
_cell_angle_alpha    81.50634367607914
_cell_angle_beta     69.74247060457516
_cell_angle_gamma    84.56744939918836

_space_group_name_H-M_alt    "P 1"
_space_group_IT_number       1

loop_
  _space_group_symop_operation_xyz
  'x, y, z'

loop_
  _atom_site_type_symbol
  _atom_site_label
  _atom_site_symmetry_multiplicity
  _atom_site_fract_x
  _atom_site_fract_y
  _atom_site_fract_z
  _atom_site_occupancy
  H   H1        1.0  0.7723571129708009  0.862616045505078  0.35261434380525514  1.0000
  H   H2        1.0  0.22764288651346345  0.13738395488638755  0.6473856565866809  1.0000
  H   H3        1.0  0.8686820070754092  0.11752114814347057  0.12694851616049282  1.0000
  H   H4        1.0  0.13131799282955509  0.8824788514488241  0.8730514834289204  1.0000
  H   H5        1.0  0.7565363445483373  0.00823247919116312  0.1292442959217547  1.0000
  H   H6        1.0  0.24346365493592714  0.9917675212003022  0.8707557044701814  1.0000
  H   H7        1.0  0.004026966709232659  0.9375184976400386  0.0644537004256895  1.0000
  H   H8        1.0  0.9959730337048923  0.06248150275102361  0.9355462999649189  1.0000
  H   H9        1.0  0.9935505488075267  0.928044385498119  0.20120838450695536  1.0000
  H   H10       1.0  0.006449450764290465  0.07195561398175178  0.7987916158855074  1.0000
  H   H11       1.0  0.038897806356199494  0.6995987994476205  0.16868280060469212  1.0000
  H   H12       1.0  0.9611021934612122  0.3004012010562691  0.8313171989841944  1.0000
  H   H13       1.0  0.8854169851947904  0.6291196880642392  0.20652524584920273  1.0000
  H   H14       1.0  0.11458301471017422  0.3708803115280556  0.7934747537402104  1.0000
  H   H15       1.0  0.9297590152703644  0.6279544598440825  0.372836365614298  1.0000
  H   H16       1.0  0.0702409854769081  0.37204554065940393  0.6271636339732609  1.0000
  H   H17       1.0  0.987266890351141  0.7795543278523277  0.33534887715993167  1.0000
  H   H18       1.0  0.012733109220676202  0.2204456716275429  0.6646511232325311  1.0000
  H   H19       1.0  0.6841402379893023  0.6049736176583196  0.4146922257874456  1.0000
  H   H20       1.0  0.31585976149496214  0.3950263827331459  0.5853077746044905  1.0000
  H   H21       1.0  0.6882485473939898  0.7057713118320919  0.2964309390106797  1.0000
  H   H22       1.0  0.3117514521778275  0.29422868764777865  0.703569061381783  1.0000
  H   H23       1.0  0.4620291489431887  0.720567199704484  0.4121205702304429  1.0000
  H   H24       1.0  0.537970851558489  0.27943279977498336  0.5878794301606923  1.0000
  H   H25       1.0  0.5049639253727659  0.7238327596325103  0.5277865731495122  1.0000
  H   H26       1.0  0.4950360745321986  0.2761672399597845  0.47221342643990105  1.0000
  H   H27       1.0  0.4328309844745246  0.9744398428025801  0.32929295416868454  1.0000
  H   H28       1.0  0.5671690150972927  0.025560156677290394  0.6707070462237781  1.0000
  H   H29       1.0  0.5807004010426062  0.8894824026166948  0.264258202458238  1.0000
  H   H30       1.0  0.41929959886235846  0.11051759697560001  0.7357417971311752  1.0000
  H   H31       1.0  0.5935110174681456  0.12888211954835205  0.24473342496910278  1.0000
  H   H32       1.0  0.40648898243681875  0.8711178800439426  0.7552665746203104  1.0000
  H   H33       1.0  0.5777721375678506  0.10473098145419356  0.3829753429781966  1.0000
  H   H34       1.0  0.4222278623371138  0.8952690181381012  0.6170246566112166  1.0000
  H   H35       1.0  0.7737602419837415  0.20589695901127064  0.32850924710875545  1.0000
  H   H36       1.0  0.2262397578336702  0.794103041492619  0.671490752480131  1.0000
  H   H37       1.0  0.9240360423378409  0.11953330740198059  0.27790297200030956  1.0000
  H   H38       1.0  0.07596395723397628  0.88046669207789  0.7220970283921533  1.0000
  H   H39       1.0  0.8424093462331206  0.12802120632421682  0.4804267922291636  1.0000
  H   H40       1.0  0.15759065418100465  0.8719787940668455  0.5195732081614448  1.0000
  H   H41       1.0  0.7145312210304261  0.030648122562284785  0.4894224334536047  1.0000
  H   H42       1.0  0.2854687784538386  0.9693518778291806  0.5105775669383313  1.0000
  H   H43       1.0  0.7689429688983868  0.6890551710539298  0.5472712004491521  1.0000
  H   H44       1.0  0.2310570316032912  0.3109448284255376  0.4527287999419832  1.0000
  H   H45       1.0  0.6685215792417423  0.8265424738801755  0.5404657589127212  1.0000
  H   H46       1.0  0.33147842066322214  0.1734575257121192  0.45953424067669196  1.0000
  H   H47       1.0  0.8458893394915517  0.885593909160673  0.591823559183888  1.0000
  H   H48       1.0  0.15411066041341281  0.11440609043162177  0.4081764404055252  1.0000
  H   H49       1.0  0.9678268909752207  0.7981474515466566  0.5005073244963587  1.0000
  H   H50       1.0  0.03217310850904385  0.20185254884480877  0.4994926758955773  1.0000
  C   C1        1.0  0.8271134241635058  0.027912630508314523  0.16687569288454668  1.0000
  C   C2        1.0  0.1728865757414587  0.9720873690839802  0.8331243067048664  1.0000
  C   C3        1.0  0.9352918098936553  0.9265408055123051  0.1479121084347833  1.0000
  C   C4        1.0  0.06470818967816186  0.07345919396756562  0.8520878919576794  1.0000
  C   C5        1.0  0.9320001924882827  0.7100940988305606  0.21397167735932243  1.0000
  C   C6        1.0  0.06799980792584231  0.2899059015605015  0.7860283230312861  1.0000
  C   C7        1.0  0.915333757938569  0.7186593623381711  0.3308721232472628  1.0000
  C   C8        1.0  0.08466624187884285  0.2813406381657187  0.6691278763416235  1.0000
  C   C9        1.0  0.672192518359937  0.7011915844618626  0.3821998830697896  1.0000
  C   C10       1.0  0.3278074814574746  0.29880841604202696  0.6178001165190969  1.0000
  C   C11       1.0  0.5347001947218587  0.7548337872435849  0.4412215903207358  1.0000
  C   C12       1.0  0.46529980484995864  0.2451662122362856  0.5587784100717269  1.0000
  C   C13       1.0  0.5347553736364175  0.9488607397427605  0.32814399608322437  1.0000
  C   C14       1.0  0.46524462711085485  0.05113926076072585  0.6718560035043346  1.0000
  C   C15       1.0  0.6135250443643091  0.062262175075612755  0.308222709955826  1.0000
  C   C16       1.0  0.3864749551199554  0.9377378253158527  0.69177729043611  1.0000
  C   C17       1.0  0.8193878642589327  0.11180095278726575  0.3284071405777251  1.0000
  C   C18       1.0  0.1806121362427451  0.8881990466922015  0.6715928598134102  1.0000
  C   C19       1.0  0.815357373981516  0.05912858273706965  0.4405549640619982  1.0000
  C   C20       1.0  0.18464262592344846  0.940871416855225  0.559445035527415  1.0000
  C   C21       1.0  0.7662230969266149  0.78203384607405  0.5049616574897218  1.0000
  C   C22       1.0  0.23377690382065752  0.21796615442943632  0.4950383420978371  1.0000
  C   C23       1.0  0.8763893562768253  0.8559984738634242  0.5111260652646569  1.0000
  C   C24       1.0  0.12361064329499195  0.14400152561644647  0.4888739351278059  1.0000
  C   C25       1.0  0.6687193358677094  0.0872210247854725  0.9107795652842172  1.0000
  C   C26       1.0  0.33128066394970246  0.9127789757184172  0.0892204343046691  1.0000
  C   C27       1.0  0.5290858448300022  0.034410346687705595  0.941708396520269  1.0000
  C   C28       1.0  0.4709141550749623  0.965589652904589  0.05829160306914405  1.0000
  C   C29       1.0  0.35816378540779276  0.5585813891314246  0.8464153665822611  1.0000
  C   C30       1.0  0.6418362141640244  0.44141861034844593  0.15358463381020157  1.0000
  C   C31       1.0  0.3318187546828499  0.44447226673034174  0.9344333817513051  1.0000
  C   C32       1.0  0.6681812457312754  0.5555277336607205  0.06556661863930338  1.0000
  C   C33       1.0  0.22149682342855537  0.4629578873885533  0.04528807242689421  1.0000
  C   C34       1.0  0.7785031764764091  0.5370421122037414  0.9547119271625191  1.0000
  C   C35       1.0  0.17833868323505805  0.34281869928342784  0.12382952698121814  1.0000
  C   C36       1.0  0.8216613163367591  0.6571813001964427  0.8761704734112448  1.0000
  N   N1        1.0  0.7565659444394213  0.03118157705164287  0.2827895384525899  1.0000
  N   N2        1.0  0.24343405630785114  0.9688184234518437  0.7172104611349689  1.0000
  N   N3        1.0  0.7806177968880665  0.7712713703154753  0.3907287015751722  1.0000
  N   N4        1.0  0.2193822029293452  0.2287286301884144  0.6092712980137143  1.0000
  O   O1        1.0  0.8704009765909131  0.812973185793319  0.16869871042278148  1.0000
  O   O2        1.0  0.12959902424391215  0.18702681379857225  0.8313012891653041  1.0000
  O   O3        1.0  0.5305488885189829  0.8854823046961993  0.431213859941204  1.0000
  O   O4        1.0  0.4694511123158423  0.1145176948956923  0.5687861396468815  1.0000
  O   O5        1.0  0.9101815755426095  0.9565274423280422  0.42868424543447237  1.0000
  O   O6        1.0  0.08981842402920767  0.04347255715182845  0.5713157549579904  1.0000
  F   F1        1.0  0.7597361586808855  0.9921685176529695  0.9125326007031147  1.0000
  F   F2        1.0  0.24026384122407882  0.007831481939325173  0.08746739888629848  1.0000
  F   F3        1.0  0.6687062948268263  0.15997171190991644  0.9851069004206697  1.0000
  F   F4        1.0  0.33129370507813816  0.8400282876823784  0.014893099168743363  1.0000
  F   F5        1.0  0.44138070028471416  0.12892473595854792  0.9299460293592534  1.0000
  F   F6        1.0  0.5586192992871031  0.8710752635213226  0.07005397103320939  1.0000
  F   F7        1.0  0.538624826546753  0.9538471714292022  0.8702114481344335  1.0000
  F   F8        1.0  0.4613751733582115  0.0461528281630925  0.12978855145497958  1.0000
  F   F9        1.0  0.3774744712858875  0.6582259868144852  0.8878711697863562  1.0000
  F   F10       1.0  0.6225255286190768  0.3417740127778095  0.11212882980305706  1.0000
  F   F11       1.0  0.24942227759597285  0.585458616516964  0.8149585609090528  1.0000
  F   F12       1.0  0.7505777223089916  0.4145413830753307  0.18504143868036033  1.0000
  F   F13       1.0  0.29674249923440316  0.3521338273028171  0.8925756662970181  1.0000
  F   F14       1.0  0.7032575006705613  0.6478661722894776  0.10742433329239506  1.0000
  F   F15       1.0  0.44695768528019963  0.40883133738921573  0.9540735335180606  1.0000
  F   F16       1.0  0.5530423152214783  0.5911686620902515  0.04592646687307456  1.0000
  F   F17       1.0  0.2685056548974388  0.5388384615821488  0.09474399794626583  1.0000
  F   F18       1.0  0.7314943450075257  0.46116153801014587  0.9052560016431473  1.0000
  F   F19       1.0  0.11120167017615397  0.519312789655085  0.02682000705686875  1.0000
  F   F20       1.0  0.8887983302379711  0.4806872107359772  0.9731799933337397  1.0000
  F   F21       1.0  0.11670978703020522  0.271374659776716  0.08164248038630374  1.0000
  F   F22       1.0  0.8832902138046198  0.7286253398151754  0.9183575192017819  1.0000
  F   F23       1.0  0.288195768584426  0.27770200395845884  0.13514349053493188  1.0000
  F   F24       1.0  0.711804231829699  0.7222979964326034  0.8648565098556766  1.0000
  I   I1        1.0  0.807645730273464  0.40119104851132337  0.5262479507550141  1.0000
  I   I2        1.0  0.19235427056136117  0.5988089510805682  0.4737520488330715  1.0000
  I   I3        1.0  0.7258299541928929  0.19795215467373095  0.7510823705028882  1.0000
  I   I4        1.0  0.2741700453789243  0.8020478448061397  0.2489176298895747  1.0000
  I   I5        1.0  0.53379388205981  0.5188082571928617  0.7075777498991368  1.0000
  I   I6        1.0  0.4662061183543152  0.4811917431982004  0.2924222504914717  1.0000
  I   I7        1.0  0.040849124236787486  0.38083208971078863  0.2833792473371619  1.0000
  I   I8        1.0  0.9591508755806241  0.6191679107931011  0.7166207522517246  1.0000
