data_image0
_chemical_formula_structural       H50C42N4O6F36I8
_chemical_formula_sum              "H50 C42 N4 O6 F36 I8"
_cell_length_a       10.860479383560179
_cell_length_b       10.975607336613558
_cell_length_c       14.75625856370168
_cell_angle_alpha    85.56649464924593
_cell_angle_beta     77.84959778095974
_cell_angle_gamma    84.4419188301757

_space_group_name_H-M_alt    "P 1"
_space_group_IT_number       1

loop_
  _space_group_symop_operation_xyz
  'x, y, z'

loop_
  _atom_site_type_symbol
  _atom_site_label
  _atom_site_symmetry_multiplicity
  _atom_site_fract_x
  _atom_site_fract_y
  _atom_site_fract_z
  _atom_site_occupancy
  H   H1        1.0  0.755110759600976  0.14315386033123967  0.6315802291570952  1.0000
  H   H2        1.0  0.24488924024686956  0.8568461396618354  0.36841977075073534  1.0000
  H   H3        1.0  0.5433350585360723  0.22233288971932016  0.6494886724579574  1.0000
  H   H4        1.0  0.45666494131177315  0.7776671102737549  0.3505113274498732  1.0000
  H   H5        1.0  0.5883203417890914  0.37408940409404856  0.6184874976949721  1.0000
  H   H6        1.0  0.41167965897964814  0.6259105958980465  0.3815125022127571  1.0000
  H   H7        1.0  0.6621022726590131  0.3855445326679254  0.7610945715374637  1.0000
  H   H8        1.0  0.33789772718883243  0.6144554673251497  0.23890542837036677  1.0000
  H   H9        1.0  0.5201837166392833  0.3117290685711882  0.7946459454687185  1.0000
  H   H10       1.0  0.47981628320856223  0.6882709314218869  0.20535405443911206  1.0000
  H   H11       1.0  0.5631124977660762  0.08195989068027708  0.7717486912929478  1.0000
  H   H12       1.0  0.4368875020817693  0.918040109312798  0.22825130861488263  1.0000
  H   H13       1.0  0.5896209171672497  0.0827716996300405  0.8872787903505381  1.0000
  H   H14       1.0  0.41037908268059575  0.9172283003630346  0.11272120955729241  1.0000
  H   H15       1.0  0.819870191872519  0.01242188438112883  0.8213665369657291  1.0000
  H   H16       1.0  0.18012980889622046  0.9875781156109664  0.17863346294200025  1.0000
  H   H17       1.0  0.7114452125187751  0.9004155627814855  0.8252689274412944  1.0000
  H   H18       1.0  0.2885547873290703  0.09958443721158956  0.17473107246653613  1.0000
  H   H19       1.0  0.9451425038764767  0.9043686278677281  0.5985931412314996  1.0000
  H   H20       1.0  0.054857496892262686  0.09563137212436715  0.4014068586762297  1.0000
  H   H21       1.0  0.9591009221389123  0.8866918870596356  0.7170030722631924  1.0000
  H   H22       1.0  0.04089907770893321  0.11330811293343933  0.28299692764463813  1.0000
  H   H23       1.0  0.9625042364061691  0.12689622690250213  0.7037477538847718  1.0000
  H   H24       1.0  0.0374957634416764  0.873103773090573  0.29625224602305866  1.0000
  H   H25       1.0  0.0983439681989898  0.039049462959145756  0.6453652984812598  1.0000
  H   H26       1.0  0.9016560314557073  0.9609505369797678  0.35463470212096715  1.0000
  H   H27       1.0  0.9830430402354122  0.2774613102512657  0.478040967140151  1.0000
  H   H28       1.0  0.016956959419284937  0.7225386896876479  0.521959033462076  1.0000
  H   H29       1.0  0.04771641864670287  0.28925645535515465  0.5772697193586961  1.0000
  H   H30       1.0  0.9522835821220368  0.7107435446369408  0.4227302805490331  1.0000
  H   H31       1.0  0.8449503091835779  0.3073638263470909  0.6796219661259046  1.0000
  H   H32       1.0  0.1550496915851614  0.6926361736450043  0.3203780337818247  1.0000
  H   H33       1.0  0.8235943470327125  0.4002809294245051  0.5785446098747976  1.0000
  H   H34       1.0  0.17640565373602682  0.5997190705675901  0.42145539003293175  1.0000
  H   H35       1.0  0.8208483102788727  0.16790198884096003  0.46874253704936275  1.0000
  H   H36       1.0  0.17915168956897273  0.832098011152115  0.5312574628584678  1.0000
  H   H37       1.0  0.7178599611662003  0.30467517798832777  0.4650806300066213  1.0000
  H   H38       1.0  0.2821400396025392  0.6953248220037673  0.5349193699011081  1.0000
  H   H39       1.0  0.5309184634621055  0.19647652653821213  0.506408853663785  1.0000
  H   H40       1.0  0.4690815371134857  0.8035234733997217  0.4935911469383407  1.0000
  H   H41       1.0  0.6357241949644961  0.10362502035173535  0.42573742314290874  1.0000
  H   H42       1.0  0.36427580488334943  0.8963749796413397  0.5742625767649217  1.0000
  H   H43       1.0  0.7876022011861757  0.9666377642743661  0.5118524746233464  1.0000
  H   H44       1.0  0.2123977984685214  0.03336223566454753  0.48814752597888056  1.0000
  H   H45       1.0  0.6643759223954783  0.8671093820578348  0.5215478829648714  1.0000
  H   H46       1.0  0.33562407837326114  0.13289061793426032  0.4784521169428579  1.0000
  H   H47       1.0  0.6218241495495335  0.8912763642055865  0.6966167763049892  1.0000
  H   H48       1.0  0.37817585029831186  0.10872363578748845  0.30338322360284137  1.0000
  H   H49       1.0  0.7621212721767651  0.8018247368444901  0.6505458595678988  1.0000
  H   H50       1.0  0.2378787276710805  0.1981752631485849  0.3494541403399318  1.0000
  C   C1        1.0  0.24600934701463983  0.11361434604648651  0.8543671298824705  1.0000
  C   C2        1.0  0.7539906526400574  0.8863856538924272  0.14563287071975634  1.0000
  C   C3        1.0  0.10678218578842429  0.07794174468539371  0.884219622803609  1.0000
  C   C4        1.0  0.8932178140594211  0.9220582553076812  0.11578037710422147  1.0000
  C   C5        1.0  0.06615820664858697  0.027755055463352732  0.98776827738346  1.0000
  C   C6        1.0  0.9338417941201524  0.9722449445287424  0.012231722524269305  1.0000
  C   C7        1.0  0.6190326444735993  0.3134283345049971  0.17846964669093363  1.0000
  C   C8        1.0  0.38096735537424614  0.686571665488078  0.8215303532168968  1.0000
  C   C9        1.0  0.6664945387079134  0.4269158101118001  0.11489331919757222  1.0000
  C   C10       1.0  0.33350546206082615  0.573084189880295  0.8851066807101571  1.0000
  C   C11       1.0  0.7510016710199352  0.39629194696859105  0.017769454424088282  1.0000
  C   C12       1.0  0.24899832882791015  0.603708053024484  0.9822305454837423  1.0000
  C   C13       1.0  0.7807856775193728  0.5116322332642189  0.9485927267797452  1.0000
  C   C14       1.0  0.21921432305621832  0.4883677666737148  0.05140727382238065  1.0000
  C   C15       1.0  0.8909049760142138  0.4847816507300889  0.8628738078152007  1.0000
  C   C16       1.0  0.10909502364048348  0.5152183492088247  0.13712619278702606  1.0000
  C   C17       1.0  0.9061981303226034  0.5861439292227147  0.7821234219435242  1.0000
  C   C18       1.0  0.09380186952524193  0.41385607077036024  0.21787657796430623  1.0000
  C   C19       1.0  0.6133580405900526  0.28588085091148396  0.6532631503718092  1.0000
  C   C20       1.0  0.3866419592577929  0.7141191490815911  0.3467368495360215  1.0000
  C   C21       1.0  0.6180996000263353  0.3018019821779786  0.7543696948900444  1.0000
  C   C22       1.0  0.38190039982151025  0.6981980178150965  0.2456303050177861  1.0000
  C   C23       1.0  0.6353340208695992  0.08944792045888665  0.8130495893724486  1.0000
  C   C24       1.0  0.3646659798991402  0.9105520795332086  0.1869504105352806  1.0000
  C   C25       1.0  0.7415739177139479  0.9890442028140302  0.7912336980646081  1.0000
  C   C26       1.0  0.25842608213389756  0.010955797179045013  0.20876630184322242  1.0000
  C   C27       1.0  0.9244912572786512  0.9501313067612838  0.6643327820849829  1.0000
  C   C28       1.0  0.07550874329694005  0.04986869317665006  0.33566721851714276  1.0000
  C   C29       1.0  0.9969511205532796  0.06377863295476366  0.6476731802873165  1.0000
  C   C30       1.0  0.0030488802154598695  0.9362213670373315  0.35232681962041285  1.0000
  C   C31       1.0  0.9710758360852766  0.25144025337790216  0.5525438213984522  1.0000
  C   C32       1.0  0.02892416376256885  0.7485597466151729  0.4474561785093783  1.0000
  C   C33       1.0  0.844428828123772  0.306167479315297  0.6057025703945489  1.0000
  C   C34       1.0  0.15557117172407345  0.6938325206777781  0.39429742951328156  1.0000
  C   C35       1.0  0.7298882185651289  0.21398240472053628  0.5006488012712377  1.0000
  C   C36       1.0  0.27011178220361043  0.786017595271559  0.49935119863649174  1.0000
  C   C37       1.0  0.6203696816788987  0.13838915693318893  0.4958138694211772  1.0000
  C   C38       1.0  0.37963031816894677  0.8616108430598861  0.5041861304866533  1.0000
  C   C39       1.0  0.6974820723512349  0.9402251957604356  0.5552389057990637  1.0000
  C   C40       1.0  0.30251792749661055  0.05977480423263947  0.4447610941087669  1.0000
  C   C41       1.0  0.7159171895490732  0.8959801035470619  0.6515705952963106  1.0000
  C   C42       1.0  0.284082810105624  0.10401989639185176  0.3484294053059163  1.0000
  N   N1        1.0  0.7371933137760867  0.23232949871616485  0.5993526219988929  1.0000
  N   N2        1.0  0.2628066860717587  0.7676705012769102  0.4006473779089376  1.0000
  N   N3        1.0  0.7866869525800255  0.9807080508656912  0.6900508235657626  1.0000
  N   N4        1.0  0.21331304726782002  0.019291949127383835  0.30994917634206776  1.0000
  O   O1        1.0  0.6917366128135345  0.20389503178299037  0.7915300943519196  1.0000
  O   O2        1.0  0.30826338703431094  0.7961049682100847  0.20846990555591097  1.0000
  O   O3        1.0  0.9807158326793971  0.12092321761330246  0.5595685352990142  1.0000
  O   O4        1.0  0.01928416716844849  0.8790767823797724  0.4404314646088164  1.0000
  O   O5        1.0  0.6034484500439484  0.042434294860818705  0.5663865878051123  1.0000
  O   O6        1.0  0.39655154980389695  0.9575657051322565  0.43361341210271825  1.0000
  F   F1        1.0  0.32636440488585017  0.009503380672465443  0.8505925965779115  1.0000
  F   F2        1.0  0.6736355958828893  0.9904966193196298  0.14940740332981775  1.0000
  F   F3        1.0  0.27300544028517976  0.18337751941918118  0.9193684768355402  1.0000
  F   F4        1.0  0.7269945593695174  0.8166224805197325  0.08063152376668661  1.0000
  F   F5        1.0  0.09260431350182466  0.9912358851368014  0.8260477475292097  1.0000
  F   F6        1.0  0.9073956872669148  0.008764114855293804  0.1739522523785197  1.0000
  F   F7        1.0  0.02690732960759532  0.17890773977481855  0.8716140624375662  1.0000
  F   F8        1.0  0.9730926702402501  0.8210922602182564  0.12838593747026425  1.0000
  F   F9        1.0  0.062477704742245496  0.12303698656631165  0.042721825453736345  1.0000
  F   F10       1.0  0.9375222951056001  0.8769630134267634  0.9572781744540941  1.0000
  F   F11       1.0  0.1559194262588396  0.9389235591183639  0.0068650628567216805  1.0000
  F   F12       1.0  0.8440805735890058  0.06107644087471129  0.9931349370511089  1.0000
  F   F13       1.0  0.721249179641993  0.23537092093262738  0.19014613525937832  1.0000
  F   F14       1.0  0.2787508211267464  0.764629079059468  0.809853864648351  1.0000
  F   F15       1.0  0.5443059269274313  0.2519859461203064  0.13690618646751637  1.0000
  F   F16       1.0  0.4556940729204142  0.7480140538727688  0.8630938134403142  1.0000
  F   F17       1.0  0.5633693107839383  0.5018887400791421  0.10020010515189444  1.0000
  F   F18       1.0  0.4366306890639071  0.49811125991393296  0.8997998947559361  1.0000
  F   F19       1.0  0.7345309549061396  0.4885371439993945  0.16158963682937688  1.0000
  F   F20       1.0  0.265469044941706  0.5114628559936805  0.8384103630784536  1.0000
  F   F21       1.0  0.8622567938331855  0.33705859485511425  0.032206964495219446  1.0000
  F   F22       1.0  0.1377432059259411  0.6629414060533447  0.967793035413007  1.0000
  F   F23       1.0  0.6902195922078388  0.3196169879215423  0.9768979110525201  1.0000
  F   F24       1.0  0.3097804085609006  0.6803830120705529  0.02310208885520926  1.0000
  F   F25       1.0  0.6736168875342796  0.552207912947664  0.9171350079076714  1.0000
  F   F26       1.0  0.32638311323445984  0.4477920870444312  0.08286499200005783  1.0000
  F   F27       1.0  0.8130933451377723  0.6025623327958848  0.9946643774777559  1.0000
  F   F28       1.0  0.18690665462135453  0.3974376681125741  0.005335622430470321  1.0000
  F   F29       1.0  0.0015747545297521502  0.46749464660036116  0.8934628831902545  1.0000
  F   F30       1.0  0.9984252453180935  0.532505353392714  0.10653711671757594  1.0000
  F   F31       1.0  0.8703320184442639  0.3788800975717318  0.8268569148473504  1.0000
  F   F32       1.0  0.1296679814035816  0.6211199024213433  0.17314308506048015  1.0000
  F   F33       1.0  0.7998323194781373  0.6004488469022945  0.7450869878326917  1.0000
  F   F34       1.0  0.20016768036970808  0.3995511530907805  0.25491301207513883  1.0000
  F   F35       1.0  0.919104677888926  0.6951878107499166  0.8168350500205213  1.0000
  F   F36       1.0  0.08089532195891946  0.30481218924315845  0.18316494988730922  1.0000
  I   I1        1.0  0.3167202536104409  0.40400104033483825  0.5237849312462383  1.0000
  I   I2        1.0  0.6832797462374046  0.5959989596582368  0.4762150686615922  1.0000
  I   I3        1.0  0.2750122839761532  0.2169367363707478  0.7181197248358643  1.0000
  I   I4        1.0  0.7249877156785439  0.7830632635681658  0.28188027576636265  1.0000
  I   I5        1.0  0.5092529081253885  0.36577698891565585  0.31514879387973255  1.0000
  I   I6        1.0  0.49074709172245695  0.6342230110774193  0.684851206028098  1.0000
  I   I7        1.0  0.0707448482729628  0.5324987854846939  0.6726186182176201  1.0000
  I   I8        1.0  0.9292551515748826  0.4675012145083812  0.32738138169021047  1.0000
