data_image0
_chemical_formula_structural       H48C52P4S4I8
_chemical_formula_sum              "H48 C52 P4 S4 I8"
_cell_length_a       8.198202594635863
_cell_length_b       10.238309845169427
_cell_length_c       17.884843992479368
_cell_angle_alpha    90.0
_cell_angle_beta     97.85056940475518
_cell_angle_gamma    90.0

_space_group_name_H-M_alt    "P 1"
_space_group_IT_number       1

loop_
  _space_group_symop_operation_xyz
  'x, y, z'

loop_
  _atom_site_type_symbol
  _atom_site_label
  _atom_site_symmetry_multiplicity
  _atom_site_fract_x
  _atom_site_fract_y
  _atom_site_fract_z
  _atom_site_occupancy
  H   H1        1.0  0.9613762355830177  0.36961474278739975  0.03847452928035441  1.0000
  H   H2        1.0  0.46137623572388553  0.1303852579368689  0.5384745291611758  1.0000
  H   H3        1.0  0.03862376415012693  0.6303852576844138  0.9615254704870291  1.0000
  H   H4        1.0  0.538623764009259  0.8696147425349448  0.46152547060620774  1.0000
  H   H5        1.0  0.1501799901631169  0.40802896016777745  0.004439999567405898  1.0000
  H   H6        1.0  0.6501799894195848  0.09197103957976745  0.5044399994503703  1.0000
  H   H7        1.0  0.8498200095700277  0.5919710393273124  0.9955600001999776  1.0000
  H   H8        1.0  0.3498200103135599  0.9080289599153224  0.4955600003170132  1.0000
  H   H9        1.0  0.2668983036337884  0.35944662113701636  0.8736812807392997  1.0000
  H   H10       1.0  0.7668983034929204  0.14055337958725223  0.3736812808584784  1.0000
  H   H11       1.0  0.7331016960993562  0.6405533793347972  0.12631871902808378  1.0000
  H   H12       1.0  0.23310169640526585  0.8594466208845614  0.626318719473326  1.0000
  H   H13       1.0  0.42497700135239225  0.49496270445369983  0.7941765586641432  1.0000
  H   H14       1.0  0.9249770012115243  0.005037295293845109  0.2941765587833217  1.0000
  H   H15       1.0  0.5750229985457941  0.50503729504139  0.20582344166766117  1.0000
  H   H16       1.0  0.07502299868666207  0.9949627051779685  0.7058234415484825  1.0000
  H   H17       1.0  0.8313420187904281  0.5865850859000464  0.7995834156794116  1.0000
  H   H18       1.0  0.3313420193689187  0.9134149143193119  0.2995834152320264  1.0000
  H   H19       1.0  0.1686579811077581  0.413414914571767  0.20041658465239268  1.0000
  H   H20       1.0  0.6686579815844349  0.08658508517577787  0.7004165845368119  1.0000
  H   H21       1.0  0.18594527357073937  0.2050417345974804  0.9915623999003328  1.0000
  H   H22       1.0  0.6859452744850387  0.2949582651500645  0.49156239945654534  1.0000
  H   H23       1.0  0.8140547263274469  0.7949582648976095  0.008437600431471492  1.0000
  H   H24       1.0  0.31405472646831484  0.7050417353217491  0.5084376003122928  1.0000
  H   H25       1.0  0.9900229141762408  0.7179589073940904  0.7161604309080839  1.0000
  H   H26       1.0  0.49002291353452215  0.7820410928252681  0.21616043045924402  1.0000
  H   H27       1.0  0.009977085721945604  0.2820410921009995  0.28383956942372046  1.0000
  H   H28       1.0  0.5099770861986224  0.21795890764654544  0.7838395693081396  1.0000
  H   H29       1.0  0.28863957375124066  0.6719925450631004  0.7149809253099005  1.0000
  H   H30       1.0  0.7886395736103727  0.8280074551562582  0.21498092542907918  1.0000
  H   H31       1.0  0.7113604261469457  0.3280074544319895  0.28501907502190377  1.0000
  H   H32       1.0  0.21136042628781357  0.17199254531555544  0.7850190749027252  1.0000
  H   H33       1.0  0.7874198161568196  0.16387299714235554  0.807925720444721  1.0000
  H   H34       1.0  0.2874198156801427  0.3361270026051894  0.3079257205603019  1.0000
  H   H35       1.0  0.2125801837413668  0.8361270023527343  0.19207427988708334  1.0000
  H   H36       1.0  0.7125801842180436  0.6638729978666241  0.6920742797715024  1.0000
  H   H37       1.0  0.8641302591057138  0.9311072759238461  0.7937910788937319  1.0000
  H   H38       1.0  0.364130258629037  0.5688927242955123  0.2937910790093129  1.0000
  H   H39       1.0  0.1358697406274308  0.06889272454796738  0.20620892087365153  1.0000
  H   H40       1.0  0.6358697411041075  0.4311072761763012  0.7062089207580706  1.0000
  H   H41       1.0  0.10465573469149798  0.8376800448217021  0.8775991804561009  1.0000
  H   H42       1.0  0.6046557345506299  0.6623199553976563  0.3775991805752795  1.0000
  H   H43       1.0  0.8953442652066883  0.16231995565011137  0.12240081987570339  1.0000
  H   H44       1.0  0.39534426534755623  0.3376800440974335  0.6224008197565247  1.0000
  H   H45       1.0  0.2620260697728795  0.976391498321037  0.9770076448737582  1.0000
  H   H46       1.0  0.762026070687179  0.5236085018983215  0.47700764442997085  1.0000
  H   H47       1.0  0.7379739301253067  0.023608502150776634  0.022992355458045996  1.0000
  H   H48       1.0  0.23797393026617467  0.4763914975967683  0.5229923553388673  1.0000
  C   C1        1.0  0.982956937952243  0.20043518422801168  0.8988429037779094  1.0000
  C   C2        1.0  0.4829569374755663  0.2995648155195332  0.39884290389349036  1.0000
  C   C3        1.0  0.017043063001110487  0.7995648152670781  0.10115709599092877  1.0000
  C   C4        1.0  0.5170430622575783  0.7004351839755566  0.6011570958738932  1.0000
  C   C5        1.0  0.016791801590745233  0.4272766654023458  0.9965910382598201  1.0000
  C   C6        1.0  0.5167918014498772  0.07272333532192282  0.4965910383789987  1.0000
  C   C7        1.0  0.9832081993626084  0.5727233350694677  0.0034089615090181894  1.0000
  C   C8        1.0  0.48320819844830903  0.9272766651498907  0.5034089619528056  1.0000
  C   C9        1.0  0.20553295594401183  0.43735041503091965  0.8388611307753776  1.0000
  C   C10       1.0  0.7055329558031439  0.06264958471662521  0.3388611308945562  1.0000
  C   C11       1.0  0.7944670437891328  0.5626495854408938  0.16113886899200594  1.0000
  C   C12       1.0  0.2944670439300008  0.9373504147784646  0.6611388688728274  1.0000
  C   C13       1.0  0.29437144845131585  0.5134399827213874  0.7941828632082594  1.0000
  C   C14       1.0  0.794371449530657  0.9865600165212475  0.2941828633288927  1.0000
  C   C15       1.0  0.7056285512818288  0.48656001677370253  0.20581713655912415  1.0000
  C   C16       1.0  0.2056285514226967  0.013439982973842388  0.7058171364399455  1.0000
  C   C17       1.0  0.03770649914943099  0.46306824678068176  0.8397251507171513  1.0000
  C   C18       1.0  0.537706499008563  0.036931753943586845  0.33972515083632987  1.0000
  C   C19       1.0  0.9622935005837137  0.5369317536911318  0.16027484905023237  1.0000
  C   C20       1.0  0.46229350072458164  0.9630682465282268  0.6602748489310537  1.0000
  C   C21       1.0  0.9606437697114134  0.5653780406666535  0.7964660169912846  1.0000
  C   C22       1.0  0.46064376923473666  0.9346219595527048  0.29646601710686543  1.0000
  C   C23       1.0  0.03935623002173115  0.43462195882843624  0.20353398277609905  1.0000
  C   C24       1.0  0.539356230498408  0.06537804091910868  0.7035339826605181  1.0000
  C   C25       1.0  0.11556955309722784  0.1472763427560682  0.9472051587746062  1.0000
  C   C26       1.0  0.6155695527913182  0.35272365699147673  0.44720515832936414  1.0000
  C   C27       1.0  0.8844304468009584  0.8527236577157453  0.052794841557198026  1.0000
  C   C28       1.0  0.3844304469418264  0.6472763425036131  0.5527948414380193  1.0000
  C   C29       1.0  0.05062785624614132  0.6398716681827076  0.7509976815642471  1.0000
  C   C30       1.0  0.5506278573254824  0.8601283320366508  0.2509976816848804  1.0000
  C   C31       1.0  0.9493721434870032  0.3601283322891059  0.24900231820313642  1.0000
  C   C32       1.0  0.4493721437929129  0.13987166843516272  0.7490023186483786  1.0000
  C   C33       1.0  0.21725827219581015  0.6138623156599726  0.7498687787255114  1.0000
  C   C34       1.0  0.7172582732751511  0.8861376835826621  0.24986877884614472  1.0000
  C   C35       1.0  0.7827417275373345  0.3861376838351172  0.2501312210418722  1.0000
  C   C36       1.0  0.2827417276782024  0.11386231591242771  0.7501312209226935  1.0000
  C   C37       1.0  0.8921059513270311  0.1220238661354291  0.8438895337973181  1.0000
  C   C38       1.0  0.39210595085035416  0.3779761336121158  0.34388953391289895  1.0000
  C   C39       1.0  0.10789404857115532  0.8779761343363844  0.1561104665344862  1.0000
  C   C40       1.0  0.6078940490478321  0.6220238658829741  0.6561104664189052  1.0000
  C   C41       1.0  0.9349417117329237  0.9915371173094251  0.8367811983890776  1.0000
  C   C42       1.0  0.4349417112562469  0.5084628829099334  0.3367811985046585  1.0000
  C   C43       1.0  0.06505828800022087  0.008462882185664714  0.16321880137830594  1.0000
  C   C44       1.0  0.5650582884768977  0.4915371175618802  0.6632188012627251  1.0000
  C   C45       1.0  0.0689965932293208  0.9392253052916734  0.8840459414912547  1.0000
  C   C46       1.0  0.5689965929234111  0.5607746949276851  0.3840459410460127  1.0000
  C   C47       1.0  0.9310034066688655  0.06077469420341646  0.11595405884054952  1.0000
  C   C48       1.0  0.4310034068097335  0.4392253055441284  0.6159540587213708  1.0000
  C   C49       1.0  0.1584339033188086  0.016738196303060223  0.9393323813732446  1.0000
  C   C50       1.0  0.6584339031779406  0.48326180344448466  0.4393323814924233  1.0000
  C   C51       1.0  0.841566096414336  0.9832618031920296  0.06066761839413893  1.0000
  C   C52       1.0  0.341566096555204  0.5167381970273289  0.5606676182749603  1.0000
  P   P1        1.0  0.9296544718387996  0.37040333388515884  0.9034509184943172  1.0000
  P   P2        1.0  0.4296544725823317  0.12959666586238608  0.4034509186113528  1.0000
  P   P3        1.0  0.07034552789434509  0.6295966665866547  0.09654908127306633  1.0000
  P   P4        1.0  0.5703455271508129  0.8704033336327038  0.5965490811560308  1.0000
  S   S1        1.0  0.6880712288294167  0.4082907611916315  0.880825990151185  1.0000
  S   S2        1.0  0.18807122835273996  0.09170923855591342  0.3808259902667659  1.0000
  S   S3        1.0  0.31192877090372784  0.591709239280182  0.11917400961619859  1.0000
  S   S4        1.0  0.8119287713804046  0.9082907609391765  0.6191740095006177  1.0000
  I   I1        1.0  0.574242720328836  0.2977127051334672  0.004741360560137606  1.0000
  I   I2        1.0  0.07424272046970408  0.2022872955908014  0.504741360440959  1.0000
  I   I3        1.0  0.42575727940430846  0.7022872953383463  0.9952586392072459  1.0000
  I   I4        1.0  0.9257572804836495  0.7977127048810121  0.49525863932787934  1.0000
  I   I5        1.0  0.4441269379507975  0.18397042465839053  0.12851516568949248  1.0000
  I   I6        1.0  0.9441269372072654  0.3160295750891544  0.628515165572457  1.0000
  I   I7        1.0  0.5558730619473887  0.8160295748366994  0.8714848346423119  1.0000
  I   I8        1.0  0.055873062525879244  0.6839704253826592  0.3714848341949266  1.0000
