data_image0
_chemical_formula_structural       H24C24N18O4
_chemical_formula_sum              "H24 C24 N18 O4"
_cell_length_a       7.574667121436456
_cell_length_b       10.130543846049457
_cell_length_c       10.179117983796022
_cell_angle_alpha    111.44630075634225
_cell_angle_beta     102.23116851216602
_cell_angle_gamma    102.80699836325034

_space_group_name_H-M_alt    "P 1"
_space_group_IT_number       1

loop_
  _space_group_symop_operation_xyz
  'x, y, z'

loop_
  _atom_site_type_symbol
  _atom_site_label
  _atom_site_symmetry_multiplicity
  _atom_site_fract_x
  _atom_site_fract_y
  _atom_site_fract_z
  _atom_site_occupancy
  H   H1        1.0  0.4072477805837593  0.6525394231532289  0.7050652880777721  1.0000
  H   H2        1.0  0.5927522193427706  0.3474605777285999  0.2949347116779171  1.0000
  H   H3        1.0  0.7085489791215557  0.4618187308063776  0.9429124454989334  1.0000
  H   H4        1.0  0.2914510203329335  0.5381812689524506  0.05708755377482934  1.0000
  H   H5        1.0  0.8523397634669713  0.7117298627915992  0.1616028503192039  1.0000
  H   H6        1.0  0.1476602364544293  0.28827013809153096  0.8383971504185443  1.0000
  H   H7        1.0  0.7691089203385983  0.9337488570496884  0.14533039156620925  1.0000
  H   H8        1.0  0.23089107911589102  0.0662511427091399  0.8546696077075537  1.0000
  H   H9        1.0  0.5372672733222296  0.890874367044941  0.903566413232702  1.0000
  H   H10       1.0  0.46273272612713034  0.10912563271518835  0.09643358702311973  1.0000
  H   H11       1.0  0.30951978739054337  0.40334161841797234  0.5251479382835182  1.0000
  H   H12       1.0  0.6904802134090815  0.5966583813407833  0.47485206218880155  1.0000
  H   H13       1.0  0.010585014126714818  0.610006616678257  0.3083725732266945  1.0000
  H   H14       1.0  0.9894149866729101  0.38999338308049875  0.6916274272456254  1.0000
  H   H15       1.0  0.8555177525539088  0.3625515731307628  0.08307877992201625  1.0000
  H   H16       1.0  0.1444822482508456  0.6374484266266918  0.9169212195682448  1.0000
  H   H17       1.0  0.9377650957126072  0.1366722776205874  0.08501862961694237  1.0000
  H   H18       1.0  0.06223490421392264  0.8633277232612414  0.9149813701387469  1.0000
  H   H19       1.0  0.17971279962049153  0.16988625453627176  0.3183187869234306  1.0000
  H   H20       1.0  0.8202871998288683  0.8301137452238575  0.6816812133323911  1.0000
  H   H21       1.0  0.4904183573822542  0.2520001948136443  0.6923015713232845  1.0000
  H   H22       1.0  0.5095816425391464  0.7479998060694858  0.3076984294144638  1.0000
  H   H23       1.0  0.2817715158875676  0.8107464408214593  0.5622250542368112  1.0000
  H   H24       1.0  0.7182284840338329  0.1892535600616708  0.437774946500937  1.0000
  C   C1        1.0  0.5388539540370649  0.5373601102344711  0.8053547893643362  1.0000
  C   C2        1.0  0.461146045412295  0.46263988952565827  0.1946452108914854  1.0000
  C   C3        1.0  0.6701253553647593  0.5583320185917156  0.9405428596232569  1.0000
  C   C4        1.0  0.3298746440846006  0.4416679811684137  0.05945714063256485  1.0000
  C   C5        1.0  0.7500784381075092  0.6972238340994596  0.06040982995172983  1.0000
  C   C6        1.0  0.24992156269211563  0.30277616565929594  0.9395901705205899  1.0000
  C   C7        1.0  0.7037471090805052  0.8224837599156504  0.05296995711090826  1.0000
  C   C8        1.0  0.29625289219116036  0.17751624096610608  0.9470300438433381  1.0000
  C   C9        1.0  0.5775077934722437  0.8012009970524465  0.9227562485415166  1.0000
  C   C10       1.0  0.4224922059771161  0.19879900270768266  0.07724375171430505  1.0000
  C   C11       1.0  0.1791346388464725  0.5246088168504235  0.4341534018035687  1.0000
  C   C12       1.0  0.8208653606080167  0.47539118290840465  0.5658465974701942  1.0000
  C   C13       1.0  0.04226659529884362  0.5096587470147378  0.30539311375978856  1.0000
  C   C14       1.0  0.9577334041556456  0.4903412527440903  0.6946068855139742  1.0000
  C   C15       1.0  0.9564122674382116  0.3725372627558603  0.18296228585420163  1.0000
  C   C16       1.0  0.04358773201114837  0.627462737004269  0.8170377144016201  1.0000
  C   C17       1.0  0.9997046501459872  0.24410995823437914  0.18310841139172507  1.0000
  C   C18       1.0  0.00029534930850208486  0.755890041524449  0.8168915878820378  1.0000
  C   C19       1.0  0.13014115939528667  0.2599969008930834  0.30899798451170335  1.0000
  C   C20       1.0  0.8698588400540733  0.740003098867046  0.6910020157441183  1.0000
  C   C21       1.0  0.4854564280950714  0.023305956283540163  0.6623269822555414  1.0000
  C   C22       1.0  0.5145435713594179  0.9766940434752879  0.33767301701822144  1.0000
  C   C23       1.0  0.14832299309503  0.9654406143946518  0.5410144740247448  1.0000
  C   C24       1.0  0.85167700635433  0.03455938536547766  0.45898552623107686  1.0000
  N   N1        1.0  0.4988638477774208  0.6636868384828989  0.8051584211115133  1.0000
  N   N2        1.0  0.5011361521439798  0.33631316240023135  0.1948415796262349  1.0000
  N   N3        1.0  0.21451335064189128  0.3956287006894644  0.4290796092079326  1.0000
  N   N4        1.0  0.7854866488074685  0.6043712990706649  0.570920391047889  1.0000
  N   N5        1.0  0.6304930412981232  0.9774195381427058  0.7072181423721963  1.0000
  N   N6        1.0  0.3695069595015018  0.022580461616050013  0.2927818581001237  1.0000
  N   N7        1.0  0.7868444793862244  0.10277754280819934  0.780522296940177  1.0000
  N   N8        1.0  0.21315552006313548  0.89722245695193  0.21947770331564467  1.0000
  N   N9        1.0  0.7444297254458127  0.2208203928525811  0.7816653065010253  1.0000
  N   N10       1.0  0.25557027582585284  0.7791796080291755  0.21833469445322118  1.0000
  N   N11       1.0  0.5540631273867743  0.17340394726048736  0.707243986313357  1.0000
  N   N12       1.0  0.44593687341285054  0.8265960524982684  0.2927560141589628  1.0000
  N   N13       1.0  0.30361932268637937  0.9259627923836141  0.5850534902744594  1.0000
  N   N14       1.0  0.6963806772350213  0.07403720849951619  0.41494651046328884  1.0000
  N   N15       1.0  0.17121398184936346  0.11214063232681787  0.5787537724170895  1.0000
  N   N16       1.0  0.8287860194223022  0.8878593685549386  0.4212462285371569  1.0000
  N   N17       1.0  0.01965339584851467  0.14813478602556288  0.5373537098232057  1.0000
  N   N18       1.0  0.9803466054231509  0.8518652148561936  0.4626462911310407  1.0000
  O   O1        1.0  0.4595974613714454  0.4135284167145606  0.6880892771255255  1.0000
  O   O2        1.0  0.5404025394281795  0.5864715830441951  0.3119107233467943  1.0000
  O   O3        1.0  0.26979937422538824  0.6476604692063355  0.5519555937073667  1.0000
  O   O4        1.0  0.730200625229101  0.3523395305524928  0.4480444055663961  1.0000
