data_image0
_chemical_formula_structural       H30C28N6O10S2
_chemical_formula_sum              "H30 C28 N6 O10 S2"
_cell_length_a       7.6510863184687645
_cell_length_b       9.104735257481336
_cell_length_c       11.900987442326246
_cell_angle_alpha    98.09693217944314
_cell_angle_beta     106.85003665081608
_cell_angle_gamma    107.123372113014

_space_group_name_H-M_alt    "P 1"
_space_group_IT_number       1

loop_
  _space_group_symop_operation_xyz
  'x, y, z'

loop_
  _atom_site_type_symbol
  _atom_site_label
  _atom_site_symmetry_multiplicity
  _atom_site_fract_x
  _atom_site_fract_y
  _atom_site_fract_z
  _atom_site_occupancy
  H   H1        1.0  0.20989942656869517  0.09998971119264694  0.24149567087507098  1.0000
  H   H2        1.0  0.7901005730308932  0.9000102894826311  0.7585043288237063  1.0000
  H   H3        1.0  0.22792648141399868  0.9629948178857142  0.038837061570252934  1.0000
  H   H4        1.0  0.7720735176604867  0.03700518160349093  0.9611629378979223  1.0000
  H   H5        1.0  0.40552915729307587  0.08630034419342568  0.9880240098167103  1.0000
  H   H6        1.0  0.5944708417814094  0.9136996552957793  0.01197598965146512  1.0000
  H   H7        1.0  0.15678402812197006  0.060379029827256014  0.9227436837355174  1.0000
  H   H8        1.0  0.8432159709525152  0.9396209696619491  0.07725631573265801  1.0000
  H   H9        1.0  0.38145351382694115  0.640689701964196  0.37246887512969207  1.0000
  H   H10       1.0  0.6185464871325164  0.3593102986967161  0.6275311256608573  1.0000
  H   H11       1.0  0.5147597728309715  0.9894563875238629  0.2604581917074065  1.0000
  H   H12       1.0  0.4852402262435139  0.010543611965342287  0.7395418077607689  1.0000
  H   H13       1.0  0.42108257451409364  0.9062187864409031  0.3662430069242929  1.0000
  H   H14       1.0  0.5789174259202609  0.09378121303393588  0.6337569936356547  1.0000
  H   H15       1.0  0.7492640075857583  0.8937433587348276  0.4791613487087197  1.0000
  H   H16       1.0  0.2507359914862052  0.10625664074739886  0.5208386515984855  1.0000
  H   H17       1.0  0.7631766858710483  0.0913553112541989  0.47226525674444164  1.0000
  H   H18       1.0  0.23682331508840912  0.908644689406713  0.5277347440461078  1.0000
  H   H19       1.0  0.847419352239607  0.9825808144271304  0.37658370937298363  1.0000
  H   H20       1.0  0.1525806481972694  0.017419185054687297  0.6234162903479341  1.0000
  H   H21       1.0  0.09932269265410298  0.28486931339675603  0.6174123858085542  1.0000
  H   H22       1.0  0.9006773069454854  0.7151306872785219  0.3825876138902231  1.0000
  H   H23       1.0  0.06272370597741449  0.5586768179454369  0.931462235216788  1.0000
  H   H24       1.0  0.9372762949845649  0.44132318272245363  0.06853776473473172  1.0000
  H   H25       1.0  0.19816735851944528  0.8057128561007041  0.8710482794843295  1.0000
  H   H26       1.0  0.80183264055504  0.19428714338850087  0.12895171998384586  1.0000
  H   H27       1.0  0.2824900547281101  0.7904872597669574  0.6823718898766629  1.0000
  H   H28       1.0  0.7175099457062444  0.2095127397078816  0.3176281106832847  1.0000
  H   H29       1.0  0.2793756927045318  0.37177929309289254  0.37054357102936286  1.0000
  H   H30       1.0  0.7206243077323445  0.6282207063889252  0.629456428691555  1.0000
  C   C1        1.0  0.36491710620421064  0.47039535720796916  0.23138751869949556  1.0000
  C   C2        1.0  0.6350828947552468  0.5296046434529428  0.7686124820910538  1.0000
  C   C3        1.0  0.26359472430374453  0.20475967637345413  0.20984927590375474  1.0000
  C   C4        1.0  0.736405274768219  0.7952403231087724  0.7901507244034506  1.0000
  C   C5        1.0  0.29776475021937426  0.20910390945127721  0.10395062884951775  1.0000
  C   C6        1.0  0.702235250217502  0.7908960900305405  0.8960493708714  1.0000
  C   C7        1.0  0.2709808386727699  0.07196743497299143  0.008134127994969301  1.0000
  C   C8        1.0  0.7290191622892095  0.9280325656948992  0.9918658719565503  1.0000
  C   C9        1.0  0.48320930921298255  0.7491284308137037  0.24393919733530967  1.0000
  C   C10       1.0  0.516790691746475  0.2508715698472081  0.7560608034552397  1.0000
  C   C11       1.0  0.5293897903026075  0.9108545092810967  0.3217873548022163  1.0000
  C   C12       1.0  0.4706102092969809  0.08914549139418128  0.6782126448965609  1.0000
  C   C13       1.0  0.735209669777273  0.9731242485869483  0.4183435389379879  1.0000
  C   C14       1.0  0.26479032981979367  0.026875752081350998  0.5816564615998192  1.0000
  C   C15       1.0  0.20100545570620018  0.5379405891446549  0.6402752164653048  1.0000
  C   C16       1.0  0.7989945452532573  0.462059411516257  0.35972478432524463  1.0000
  C   C17       1.0  0.12200889255969735  0.39879038918933046  0.6729200813016879  1.0000
  C   C18       1.0  0.8779911084022819  0.6012096114785602  0.32707991864983166  1.0000
  C   C19       1.0  0.07182439245646002  0.40883242842506445  0.776437956711444  1.0000
  C   C20       1.0  0.9281756079804163  0.5911675710567532  0.2235620430094736  1.0000
  C   C21       1.0  0.1003791908861394  0.5540042939767552  0.8500794196300387  1.0000
  C   C22       1.0  0.8996208081883459  0.44599570551244977  0.14992057983813645  1.0000
  C   C23       1.0  0.17690023389218992  0.6917994889087807  0.8157125980855832  1.0000
  C   C24       1.0  0.8230997657048765  0.3082005117595185  0.1842874024522239  1.0000
  C   C25       1.0  0.2251611248474245  0.6839240276262637  0.711037940514869  1.0000
  C   C26       1.0  0.7748388742270607  0.31607597186294134  0.28896205895330634  1.0000
  C   C27       1.0  0.2584718655182173  0.5277263922577913  0.5293499847601255  1.0000
  C   C28       1.0  0.741528134081371  0.4722736084174866  0.4706500149386518  1.0000
  N   N1        1.0  0.3016319178108478  0.35167503553929647  0.28004011126753875  1.0000
  N   N2        1.0  0.6983680826260285  0.6483249639425213  0.719959888453379  1.0000
  N   N3        1.0  0.40739131671123124  0.6234748201548594  0.28913425348528177  1.0000
  N   N4        1.0  0.5926086842482262  0.37652518050605255  0.7108657473052676  1.0000
  N   N5        1.0  0.984362942598361  0.2620169073785323  0.8072072615229354  1.0000
  N   N6        1.0  0.01563705836361828  0.7379830932893583  0.19279273842858405  1.0000
  O   O1        1.0  0.5130787268702042  0.7262698416581186  0.1470782270159015  1.0000
  O   O2        1.0  0.4869212735641504  0.2737301578167206  0.852921773544046  1.0000
  O   O3        1.0  0.31696713930377673  0.6529042141303469  0.49512482003848785  1.0000
  O   O4        1.0  0.6830328616556808  0.347095786530565  0.5048751807520616  1.0000
  O   O5        1.0  0.24336311635371025  0.38845974475253836  0.4787479920054553  1.0000
  O   O6        1.0  0.7566368840831661  0.6115402547292794  0.5212520077154623  1.0000
  O   O7        1.0  0.9634713316244029  0.13413337251771484  0.741474919931271  1.0000
  O   O8        1.0  0.03652866797518561  0.8658666281575632  0.25852507976750616  1.0000
  O   O9        1.0  0.9327636276328279  0.26990539690759274  0.8974085171523839  1.0000
  O   O10       1.0  0.06723637144165735  0.7300946025816123  0.1025914823157915  1.0000
  S   S1        1.0  0.38260340555356154  0.4056341325231883  0.09368281280250781  1.0000
  S   S2        1.0  0.6173965948807929  0.5943658669516506  0.9063171877574399  1.0000
