data_image0
_chemical_formula_structural       H40C34N4O2F8S2I4
_chemical_formula_sum              "H40 C34 N4 O2 F8 S2 I4"
_cell_length_a       6.011720629220642
_cell_length_b       10.338235294203642
_cell_length_c       17.033204265193824
_cell_angle_alpha    77.74639890377527
_cell_angle_beta     89.44344456793807
_cell_angle_gamma    76.9061967934341

_space_group_name_H-M_alt    "P 1"
_space_group_IT_number       1

loop_
  _space_group_symop_operation_xyz
  'x, y, z'

loop_
  _atom_site_type_symbol
  _atom_site_label
  _atom_site_symmetry_multiplicity
  _atom_site_fract_x
  _atom_site_fract_y
  _atom_site_fract_z
  _atom_site_occupancy
  H   H1        1.0  0.7213401519492296  0.3966118028032759  0.1929260518881284  1.0000
  H   H2        1.0  0.2786598475712818  0.6033881972051263  0.8070739482268617  1.0000
  H   H3        1.0  0.5210088883974537  0.2933365726818044  0.21979973710713013  1.0000
  H   H4        1.0  0.47899111112305764  0.706663427326598  0.7802002630078599  1.0000
  H   H5        1.0  0.8352496810026939  0.50943672653455  0.29684796108396505  1.0000
  H   H6        1.0  0.16475031851781738  0.49056327347385253  0.7031520390310253  1.0000
  H   H7        1.0  0.9088817441391724  0.35221348045234496  0.3688643874668722  1.0000
  H   H8        1.0  0.09111825699910163  0.6477865197531747  0.6311356120523561  1.0000
  H   H9        1.0  0.017175536391674177  0.22880286817064882  0.2839492163867095  1.0000
  H   H10       1.0  0.9828244647957809  0.7711971318280132  0.7160507837337119  1.0000
  H   H11       1.0  0.8153340923939981  0.1336008115428951  0.32353469673526475  1.0000
  H   H12       1.0  0.18466590874427605  0.8663991886626244  0.6764653027839636  1.0000
  H   H13       1.0  0.25174699669172246  0.46606775979694587  0.2598942081808213  1.0000
  H   H14       1.0  0.7482530027796079  0.5339322404183141  0.7401057913329758  1.0000
  H   H15       1.0  0.436982771448198  0.5782449918329099  0.23048534299803733  1.0000
  H   H16       1.0  0.5630172280723134  0.4217550081754926  0.7695146571169529  1.0000
  H   H17       1.0  0.625120252506027  0.43629068108159896  0.46148020018966435  1.0000
  H   H18       1.0  0.37487974701448423  0.5637093189268035  0.538519799925326  1.0000
  H   H19       1.0  0.8069818832778978  0.552405542911928  0.4338093269016947  1.0000
  H   H20       1.0  0.1930181162426135  0.44759445709647444  0.5661906732132955  1.0000
  H   H21       1.0  0.17104379198139819  0.666344962148595  0.3269193598696245  1.0000
  H   H22       1.0  0.8289562092060568  0.3336550378500671  0.673080640250797  1.0000
  H   H23       1.0  0.23893724129194316  0.5067837619477557  0.3974556846441783  1.0000
  H   H24       1.0  0.7610627582285682  0.4932162380606467  0.602544315470812  1.0000
  H   H25       1.0  0.01101017432454993  0.03301935714337538  0.08403464359018385  1.0000
  H   H26       1.0  0.9889898251959612  0.966980642865027  0.9159653565248064  1.0000
  H   H27       1.0  0.11396658735316602  0.871475307154763  0.14876638598566067  1.0000
  H   H28       1.0  0.8860334121181643  0.1285246930604969  0.8512336135281365  1.0000
  H   H29       1.0  0.9023007850588065  0.8461025998881389  0.29891267686222733  1.0000
  H   H30       1.0  0.09769921446170476  0.1538974001202636  0.7010873232527628  1.0000
  H   H31       1.0  0.6911752727588948  0.9904419101024794  0.3100594588729699  1.0000
  H   H32       1.0  0.30882472676161654  0.009558089905923082  0.6899405412420203  1.0000
  H   H33       1.0  0.8574404137368303  0.847324631346392  0.044112047238720566  1.0000
  H   H34       1.0  0.142559585783681  0.1526753686620104  0.9558879528762697  1.0000
  H   H35       1.0  0.6334904191165897  0.9766414551552504  0.0675433050289747  1.0000
  H   H36       1.0  0.36650958040392184  0.023358544853151947  0.9324566950860155  1.0000
  H   H37       1.0  0.4373876239678223  0.9532577573108449  0.20729133362216662  1.0000
  H   H38       1.0  0.5626123755526891  0.04674224269755735  0.7927086664928236  1.0000
  H   H39       1.0  0.5207754038817212  0.8056328275688278  0.28620748137297863  1.0000
  H   H40       1.0  0.4792245956387902  0.19436717243957458  0.7137925187420117  1.0000
  C   C1        1.0  0.15346866390045844  0.07938782715904284  0.46412930574969014  1.0000
  C   C2        1.0  0.846531335620053  0.9206121728493595  0.5358706943653001  1.0000
  C   C3        1.0  0.014013464964900227  0.11615408711221992  0.5253428156776065  1.0000
  C   C4        1.0  0.985986534930144  0.8838459119004544  0.47465718444487615  1.0000
  C   C5        1.0  0.864454109912448  0.03778559731383895  0.561003374360543  1.0000
  C   C6        1.0  0.13554589122582622  0.9622144028916806  0.4389966251586853  1.0000
  C   C7        1.0  0.3719198990532164  0.41077386838901114  0.04342081727235571  1.0000
  C   C8        1.0  0.628080100467295  0.5892261316193913  0.9565791828426344  1.0000
  C   C9        1.0  0.3168307655444472  0.5492945584247366  0.043184976212994663  1.0000
  C   C10       1.0  0.6831692339760641  0.4507054415836657  0.9568150239019956  1.0000
  C   C11       1.0  0.44120459331488593  0.6371920476341748  0.9999469922211218  1.0000
  C   C12       1.0  0.5587954061564443  0.36280795258108517  5.3007292675269764e-05  1.0000
  C   C13       1.0  0.6668928534773794  0.32412566322078995  0.2428065817377294  1.0000
  C   C14       1.0  0.33310714604313196  0.6758743367876127  0.7571934183772607  1.0000
  C   C15       1.0  0.7673243432235873  0.4387341112530816  0.3442783026637253  1.0000
  C   C16       1.0  0.23267565796386785  0.5612658887455804  0.6557216974566962  1.0000
  C   C17       1.0  0.8616877933251106  0.1984059809565997  0.2688283869508743  1.0000
  C   C18       1.0  0.13831220786234455  0.8015940190420624  0.7311716131695472  1.0000
  C   C19       1.0  0.39000807265978576  0.5049238637875334  0.2816730768252288  1.0000
  C   C20       1.0  0.6099919268607257  0.495076136220869  0.7183269232897613  1.0000
  C   C21       1.0  0.675463943174758  0.5096617872352615  0.4112129748668615  1.0000
  C   C22       1.0  0.3245360580126972  0.4903382127634005  0.58878702525356  1.0000
  C   C23       1.0  0.3073207575366697  0.575836674484  0.3496462786192262  1.0000
  C   C24       1.0  0.6926792440253183  0.42416332451893396  0.6503537215086876  1.0000
  C   C25       1.0  0.8790138269026455  0.014415637229271187  0.20089516522650075  1.0000
  C   C26       1.0  0.12098617261786566  0.9855843627791312  0.7991048348884894  1.0000
  C   C27       1.0  0.9599973507960887  0.9537633153967224  0.12960401911939884  1.0000
  C   C28       1.0  0.04000264872442253  0.04623668461168005  0.8703959809955913  1.0000
  C   C29       1.0  0.7673381021727248  0.9307624355950893  0.26634000303398186  1.0000
  C   C30       1.0  0.23266189734778644  0.06923756441331312  0.7336599970810084  1.0000
  C   C31       1.0  0.7833520760990821  0.8956665448496285  0.0927884583945967  1.0000
  C   C32       1.0  0.2166479237959621  0.10433345416304585  0.907211541727886  1.0000
  C   C33       1.0  0.5825327825621892  0.871203628889978  0.23547709507463105  1.0000
  C   C34       1.0  0.417467216958322  0.12879637111842449  0.7645229050403591  1.0000
  N   N1        1.0  0.5869723015002604  0.39009128232447343  0.3095124567337442  1.0000
  N   N2        1.0  0.413027699687195  0.6099087176741884  0.6904875433866772  1.0000
  N   N3        1.0  0.9179969478798695  0.13113472699876957  0.20230159752583046  1.0000
  N   N4        1.0  0.08200305201517498  0.8688652720139045  0.7976984025966521  1.0000
  O   O1        1.0  0.4850491595018819  0.6214724242082097  0.38331852218104767  1.0000
  O   O2        1.0  0.5149508400186292  0.37852757580019286  0.6166814779339426  1.0000
  F   F1        1.0  0.021194577200800247  0.23107005420969345  0.5510871951455911  1.0000
  F   F2        1.0  0.978805423986655  0.7689299457889686  0.44891280497483027  1.0000
  F   F3        1.0  0.7360204773562392  0.07717183280187462  0.6213160777678266  1.0000
  F   F4        1.0  0.26397952383121603  0.9228281671967874  0.37868392235259474  1.0000
  F   F5        1.0  0.1385575577449246  0.6013937403562291  0.08555748591622066  1.0000
  F   F6        1.0  0.8614424434425305  0.398606259642433  0.9144425142042008  1.0000
  F   F7        1.0  0.374746752976866  0.7718397164968818  0.9999875928260289  1.0000
  F   F8        1.0  0.6252532465436452  0.22816028351152076  1.2407288961233781e-05  1.0000
  S   S1        1.0  0.6892965951128894  0.7656747677977321  0.16531159383297805  1.0000
  S   S2        1.0  0.31070340440762195  0.23432523221067036  0.8346884062820122  1.0000
  I   I1        1.0  0.37554563215247766  0.20346318842772085  0.4078683203305169  1.0000
  I   I2        1.0  0.6244543673680335  0.7965368115806816  0.5921316797844733  1.0000
  I   I3        1.0  0.17171255460489232  0.2798218849486853  0.10670943585892598  1.0000
  I   I4        1.0  0.828287444915619  0.7201781150597171  0.8932905642560641  1.0000
