data_image0
_chemical_formula_structural       H64C66O14
_chemical_formula_sum              "H64 C66 O14"
_cell_length_a       5.633021975985627
_cell_length_b       8.760519755198546
_cell_length_c       28.01130028863715
_cell_angle_alpha    97.52659140607396
_cell_angle_beta     90.57633652661917
_cell_angle_gamma    90.91925185658957

_space_group_name_H-M_alt    "P 1"
_space_group_IT_number       1

loop_
  _space_group_symop_operation_xyz
  'x, y, z'

loop_
  _atom_site_type_symbol
  _atom_site_label
  _atom_site_symmetry_multiplicity
  _atom_site_fract_x
  _atom_site_fract_y
  _atom_site_fract_z
  _atom_site_occupancy
  H   H1        1.0  0.6430830324093719  0.4223219181257763  0.4060574404387781  1.0000
  H   H2        1.0  0.5260380485038868  0.6756441962005509  0.44471859903029015  1.0000
  H   H3        1.0  0.5742820327260508  0.9594153417647316  0.4471274459759471  1.0000
  H   H4        1.0  0.9345389879323126  0.06868450730391501  0.4127121139526585  1.0000
  H   H5        1.0  0.2500336195395237  0.8954374504736293  0.37762761124228666  1.0000
  H   H6        1.0  0.20544280390491393  0.6123766210671119  0.37700678044102615  1.0000
  H   H7        1.0  0.25436779801283815  0.3134360944091261  0.42348366554745565  1.0000
  H   H8        1.0  0.48629365125912366  0.1507031426876634  0.363014504090787  1.0000
  H   H9        1.0  0.34066115937665176  0.09746221601505348  0.27823956565775615  1.0000
  H   H10       1.0  0.9602406797389902  0.21296482101520636  0.25451705370862093  1.0000
  H   H11       1.0  0.7282817440989553  0.37586150198822305  0.3153271831328247  1.0000
  H   H12       1.0  0.8029372800105641  0.4182081403899366  0.5528906146026061  1.0000
  H   H13       1.0  0.20530117203934584  0.4119578271021452  0.5213732112301963  1.0000
  H   H14       1.0  0.36401436862967435  0.4060160529766947  0.668279273008353  1.0000
  H   H15       1.0  0.5346019176901283  0.622018346326438  0.7162944196534833  1.0000
  H   H16       1.0  0.5359791687048714  0.9016247152397462  0.7467321552013936  1.0000
  H   H17       1.0  0.19023258225091463  0.06209395024141682  0.7286487532431245  1.0000
  H   H18       1.0  0.854058362603884  0.9425594821985069  0.6789646494467346  1.0000
  H   H19       1.0  0.8508559289532314  0.6613934619255154  0.6498022309554595  1.0000
  H   H20       1.0  0.20389103874309766  0.4402750145779146  0.7621638251839546  1.0000
  H   H21       1.0  0.9161193947812867  0.3138996510317402  0.811870319850939  1.0000
  H   H22       1.0  0.5638310904779186  0.17416366309098208  0.7740958173278351  1.0000
  H   H23       1.0  0.5020445763919723  0.1553194218469919  0.684538845357137  1.0000
  H   H24       1.0  0.7864260509783517  0.2782529850534504  0.6353144355020239  1.0000
  H   H25       1.0  0.6090428428014564  0.19785478898623696  0.5623025269970484  1.0000
  H   H26       1.0  0.3677200694381841  0.19317538052692892  0.49214400443260636  1.0000
  H   H27       1.0  0.34943587094878514  0.6179959623244241  0.9083341111942873  1.0000
  H   H28       1.0  0.9223781018412113  0.755992637478858  0.9495395667155919  1.0000
  H   H29       1.0  0.21759347372563503  0.880905861703863  0.9022132221778094  1.0000
  H   H30       1.0  0.18001613757393903  0.8558279582207411  0.812490451960319  1.0000
  H   H31       1.0  0.8375805594841659  0.7128356349727681  0.771417218809648  1.0000
  H   H32       1.0  0.5370894202332256  0.5882908933678602  0.818791064509807  1.0000
  H   H33       1.0  0.8797109655176191  0.3783454937824246  0.9317886148825439  1.0000
  H   H34       1.0  0.891354123888733  0.09756951656583962  0.9041751101117289  1.0000
  H   H35       1.0  0.5584123367932089  0.9654131899241135  0.8563785627256425  1.0000
  H   H36       1.0  0.20336680094816734  0.11652749560030218  0.8367797184736389  1.0000
  H   H37       1.0  0.19218800765905095  0.3972302291083627  0.8648088320868625  1.0000
  H   H38       1.0  0.44351909673985085  0.7092658579058396  0.061420951602270256  1.0000
  H   H39       1.0  0.8495888799757839  0.6857494894438787  0.030737202245503362  1.0000
  H   H40       1.0  0.006795595483992697  0.824258510860513  0.1770130824396193  1.0000
  H   H41       1.0  0.9286064809332573  0.8519749240676375  0.2677838427273276  1.0000
  H   H42       1.0  0.6999994253376199  0.7370331329005336  0.32939376976928847  1.0000
  H   H43       1.0  0.31745935550581483  0.5949882884988875  0.30684862114095  1.0000
  H   H44       1.0  0.16380673976342014  0.575758765076579  0.22268317701735596  1.0000
  H   H45       1.0  0.39288548587472294  0.6909025988092732  0.1613559085546973  1.0000
  H   H46       1.0  0.4462194293533673  0.028427685096528797  0.20715583376672214  1.0000
  H   H47       1.0  0.4026526480113768  0.310415987994257  0.20607948991956018  1.0000
  H   H48       1.0  0.7164244555794649  0.4590782173770398  0.17009614525321726  1.0000
  H   H49       1.0  0.07512994396554569  0.327262711667878  0.13529009535305922  1.0000
  H   H50       1.0  0.12299942999845634  0.04692129543115861  0.13813245340569014  1.0000
  H   H51       1.0  0.2676692309623042  0.5168090583214395  0.09007150931113801  1.0000
  H   H52       1.0  0.019654122745375063  0.46508592510822766  0.01917804890617191  1.0000
  H   H53       1.0  0.6877407127230492  0.8108290953016983  0.604914599337224  1.0000
  H   H54       1.0  0.42296884674227136  0.9246715700777584  0.6100441044416769  1.0000
  H   H55       1.0  0.6217329224381942  0.9401554204840429  0.5626887346976405  1.0000
  H   H56       1.0  0.12487924042403514  0.6915041054314511  0.5015635106447845  1.0000
  H   H57       1.0  0.19035497047528055  0.892909225814578  0.5212035734860601  1.0000
  H   H58       1.0  0.04718227853619718  0.7796917965139458  0.5600250004131452  1.0000
  H   H59       1.0  0.587278025176894  0.9940050752821958  0.07266666372925736  1.0000
  H   H60       1.0  0.5213900042368722  0.1897065310815872  0.06349980472828441  1.0000
  H   H61       1.0  0.6550248008190377  0.06595623106995813  0.01766636699372372  1.0000
  H   H62       1.0  0.010124837104677204  0.07428652689794649  0.9779995932828183  1.0000
  H   H63       1.0  0.2739114695649049  0.1946118342067461  0.9787039710751174  1.0000
  H   H64       1.0  0.08063596250790157  0.21648917968903295  0.02791852793787738  1.0000
  C   C1        1.0  0.8319817938208728  0.4549101287926422  0.41059894094313537  1.0000
  C   C2        1.0  0.8627538752265147  0.6260531243652023  0.410358375088452  1.0000
  C   C3        1.0  0.6849633053593416  0.7242358157577258  0.4301280750861261  1.0000
  C   C4        1.0  0.7113422534300778  0.8831218102536499  0.43139420590406463  1.0000
  C   C5        1.0  0.9140131847935359  0.9449280551598186  0.4122615466381737  1.0000
  C   C6        1.0  0.0917686344372083  0.8477896677567228  0.3926085914289363  1.0000
  C   C7        1.0  0.06677910347930335  0.688921553309973  0.3920272842504393  1.0000
  C   C8        1.0  0.9754214961297786  0.355277267760877  0.3737751231708536  1.0000
  C   C9        1.0  0.19005854316914725  0.29246430347834956  0.3864780832197561  1.0000
  C   C10       1.0  0.32059015651400946  0.19980512574389778  0.3522321912803492  1.0000
  C   C11       1.0  0.23832123748253942  0.17032100259457558  0.30473376600562735  1.0000
  C   C12       1.0  0.025913480788468612  0.2349404830823433  0.2915438915325051  1.0000
  C   C13       1.0  0.8946726606287506  0.3268471904595382  0.32588160803711574  1.0000
  C   C14       1.0  0.7765217500098295  0.32262662967985595  0.4800966131924617  1.0000
  C   C15       1.0  0.8615885044173385  0.3107814994834935  0.5314480871391609  1.0000
  C   C16       1.0  0.1329060197361914  0.3065810250911979  0.5340179922320675  1.0000
  C   C17       1.0  0.21753597623119816  0.3163592740207169  0.5863434235537776  1.0000
  C   C18       1.0  0.1853374056080667  0.45297028454056004  0.6657217117806306  1.0000
  C   C19       1.0  0.19169363671406423  0.62423936783351  0.6816154983445369  1.0000
  C   C20       1.0  0.38434451957177374  0.692527731657648  0.7086512455117018  1.0000
  C   C21       1.0  0.3847722498583501  0.8498011187493936  0.7256122437701199  1.0000
  C   C22       1.0  0.1931392297883323  0.9396170248214961  0.7152442312317014  1.0000
  C   C23       1.0  0.0022180323920795845  0.8720612085182169  0.6874209189051883  1.0000
  C   C24       1.0  0.0007044121744087048  0.7149493704521663  0.6710079803315379  1.0000
  C   C25       1.0  0.013732193018626274  0.36932822591857434  0.6952451285442547  1.0000
  C   C26       1.0  0.05031948929394117  0.3770644307458963  0.745123238017756  1.0000
  C   C27       1.0  0.889259911751532  0.306214914204931  0.7730843373228592  1.0000
  C   C28       1.0  0.6900923944489338  0.22681711773631996  0.7517191696802907  1.0000
  C   C29       1.0  0.6552309419768965  0.21713961318761946  0.7020931857477437  1.0000
  C   C30       1.0  0.8163655874988742  0.28767505333456905  0.6739691643377012  1.0000
  C   C31       1.0  0.5298987726009298  0.5776615990101577  0.9143194680832498  1.0000
  C   C32       1.0  0.7091572742447171  0.6632764771301607  0.8874011057729311  1.0000
  C   C33       1.0  0.9010189881567651  0.7465217718152366  0.9106018666501257  1.0000
  C   C34       1.0  0.06887638689545902  0.8164821568181191  0.883715078058221  1.0000
  C   C35       1.0  0.04743872255573365  0.8040158443927529  0.8337138211874799  1.0000
  C   C36       1.0  0.854163366161504  0.7229337191610922  0.8105018539669302  1.0000
  C   C37       1.0  0.6858808869731222  0.653285476013704  0.8371591793491783  1.0000
  C   C38       1.0  0.5364195706591199  0.4056014999391327  0.89904192100595  1.0000
  C   C39       1.0  0.7326534063219525  0.32099336604581796  0.9106406372298183  1.0000
  C   C40       1.0  0.7381610467954787  0.16312216527490567  0.8954408971229542  1.0000
  C   C41       1.0  0.5496322223752349  0.0886527867105917  0.8685168848138266  1.0000
  C   C42       1.0  0.3531527424257602  0.17304458116193022  0.8572425130116826  1.0000
  C   C43       1.0  0.34695670442188237  0.3309993669009957  0.8725937095554602  1.0000
  C   C44       1.0  0.4305707601949413  0.5623927621903447  0.9959322724694195  1.0000
  C   C45       1.0  0.5114384328580832  0.593688864707232  0.04872347885964613  1.0000
  C   C46       1.0  0.7825170664177657  0.5988324283698867  0.05280602837946162  1.0000
  C   C47       1.0  0.8684491421454191  0.6581747843373718  0.10387738057664467  1.0000
  C   C48       1.0  0.8177114929096211  0.8495308022904803  0.17296527056057903  1.0000
  C   C49       1.0  0.6764673650719109  0.7783958190363143  0.21018604693727225  1.0000
  C   C50       1.0  0.7609348814958052  0.7915748364711142  0.25779863426371064  1.0000
  C   C51       1.0  0.6315362357638382  0.7267552269515929  0.29258140550725187  1.0000
  C   C52       1.0  0.4175833189626113  0.6477273551889027  0.28005073589227897  1.0000
  C   C53       1.0  0.3312645641448341  0.6361053495649224  0.23283935582834353  1.0000
  C   C54       1.0  0.4601213667306038  0.701730689402958  0.19813895614536653  1.0000
  C   C55       1.0  0.787272462733544  0.020182100943736805  0.17307429185107973  1.0000
  C   C56       1.0  0.5841676438965949  0.0947803534395462  0.19167380593861486  1.0000
  C   C57       1.0  0.5596640533486077  0.25259317276330084  0.19085094568712727  1.0000
  C   C58       1.0  0.7367916004087359  0.33620848639985235  0.1707420251863923  1.0000
  C   C59       1.0  0.9384332405103207  0.26196476310477734  0.15135746562328065  1.0000
  C   C60       1.0  0.9643318482602129  0.10473825838915932  0.15279956318008417  1.0000
  C   C61       1.0  0.5444324994911055  0.8584583057767761  0.5851812305675577  1.0000
  C   C62       1.0  0.4138287183361466  0.7333786475329493  0.5530970524468838  1.0000
  C   C63       1.0  0.18246932364179194  0.7764138990107883  0.5317852057883153  1.0000
  C   C64       1.0  0.5253722427101679  0.06887173078937106  0.04693638406615997  1.0000
  C   C65       1.0  0.1555904290386622  0.1305054950538613  0.00016748012904471593  1.0000
  C   C66       1.0  0.2889583494661015  0.015796323014791298  0.02493682708725336  1.0000
  O   O1        1.0  0.9035008885515085  0.4260707498934312  0.4596259513591319  1.0000
  O   O2        1.0  0.605290343147413  0.2502907898735762  0.4606015390587174  1.0000
  O   O3        1.0  0.7684009989150149  0.17802624406116446  0.5485041188489247  1.0000
  O   O4        1.0  0.21269894425484684  0.17148607982608163  0.5065058053262715  1.0000
  O   O5        1.0  0.3722550067153483  0.23516469641224955  0.6003363402051399  1.0000
  O   O6        1.0  0.11144087430044557  0.42916513538813533  0.615124051880086  1.0000
  O   O7        1.0  0.586479546965848  0.6134892968039491  0.9655706078183584  1.0000
  O   O8        1.0  0.2410024469786304  0.49960540763978933  0.9822300545590505  1.0000
  O   O9        1.0  0.418653560418152  0.4801834224516261  0.0751219281050508  1.0000
  O   O10       1.0  0.8721730425716631  0.4519510181125921  0.03743783667187161  1.0000
  O   O11       1.0  0.041096947868923074  0.6070407394229085  0.12328004366665105  1.0000
  O   O12       1.0  0.7433363560469077  0.7775483409994055  0.12415008541169988  1.0000
  O   O13       1.0  0.49356020351669755  0.6020017746880854  0.5447663261319824  1.0000
  O   O14       1.0  0.20676214198027507  0.8851120191418587  0.02705427796534518  1.0000
