data_image0
_chemical_formula_structural       H56C104Cl42
_chemical_formula_sum              "H56 C104 Cl42"
_cell_length_a       14.958238070504363
_cell_length_b       14.823341314314037
_cell_length_c       16.517738623577753
_cell_angle_alpha    64.78621514701531
_cell_angle_beta     65.74679525555615
_cell_angle_gamma    63.8981755518669

_space_group_name_H-M_alt    "P 1"
_space_group_IT_number       1

loop_
  _space_group_symop_operation_xyz
  'x, y, z'

loop_
  _atom_site_type_symbol
  _atom_site_label
  _atom_site_symmetry_multiplicity
  _atom_site_fract_x
  _atom_site_fract_y
  _atom_site_fract_z
  _atom_site_occupancy
  H   H1        1.0  0.5022605754587305  0.1120332352208337  0.3800250961063654  1.0000
  H   H2        1.0  0.4977394238339521  0.8879667651957495  0.6199749042778517  1.0000
  H   H3        1.0  0.6786160907862626  0.8027030259150848  0.3459371729207067  1.0000
  H   H4        1.0  0.3213839090542284  0.19729697399308282  0.6540628267627072  1.0000
  H   H5        1.0  0.41785538357157465  0.2258541700716878  0.9700244726191906  1.0000
  H   H6        1.0  0.5821446162689162  0.7741458298364797  0.0299755270642234  1.0000
  H   H7        1.0  0.1051932539335889  0.22046081258110356  0.1196776003621609  1.0000
  H   H8        1.0  0.8948067465723774  0.7795391873276122  0.8803223993273896  1.0000
  H   H9        1.0  0.6254678730461888  0.5520003839385679  0.13102183969636544  1.0000
  H   H10       1.0  0.3745321267943023  0.44799961596959964  0.8689781599870485  1.0000
  H   H11       1.0  0.4138888176774833  0.6363762970933676  0.9755437974839742  1.0000
  H   H12       1.0  0.5861111824970894  0.3636237035649018  0.024456202210444325  1.0000
  H   H13       1.0  0.9090167609675326  0.7994019726773444  0.3565669711412077  1.0000
  H   H14       1.0  0.09098323887295841  0.20059802723082304  0.6434330285422062  1.0000
  H   H15       1.0  0.06620870262425248  0.4687053776030166  0.38275874170912144  1.0000
  H   H16       1.0  0.9337912978817139  0.5312946223056993  0.6172412579804292  1.0000
  H   H17       1.0  0.26333834977455706  0.7931500363172751  0.8051525481875089  1.0000
  H   H18       1.0  0.7366616505149943  0.20684996335030267  0.1948474521979767  1.0000
  H   H19       1.0  0.5432960501117081  0.6430522476767624  0.6236076755029218  1.0000
  H   H20       1.0  0.4567039497287831  0.35694775223140507  0.3763923241804921  1.0000
  H   H21       1.0  0.05375842959787325  0.5074075559614907  0.8097281483950015  1.0000
  H   H22       1.0  0.9462415702426177  0.49259244394667684  0.19027185128841245  1.0000
  H   H23       1.0  0.8818150088835333  0.7720318425480108  0.6256293755206885  1.0000
  H   H24       1.0  0.11818499095695774  0.22796815736015652  0.37437062416272554  1.0000
  H   H25       1.0  0.15228369559578603  0.5857912210000494  0.9013752323184261  1.0000
  H   H26       1.0  0.8477163046937655  0.4142087786675284  0.09862476806705951  1.0000
  H   H27       1.0  0.0377306314325589  0.5693766776791377  0.9902976653162514  1.0000
  H   H28       1.0  0.9622693687420137  0.43062332297913175  0.009702334378167156  1.0000
  H   H29       1.0  0.1513518754670808  0.5385751119505685  0.019802071868473468  1.0000
  H   H30       1.0  0.8486481248224707  0.46142488771700935  0.9801979285170122  1.0000
  H   H31       1.0  0.030457710736654684  0.7610611147815014  0.9178055527660546  1.0000
  H   H32       1.0  0.9695422888874212  0.23893888488552817  0.08219444761329445  1.0000
  H   H33       1.0  0.13956405798098132  0.730181613662482  0.9518743498286166  1.0000
  H   H34       1.0  0.8604359416430949  0.26981838600454755  0.048125650550732244  1.0000
  H   H35       1.0  0.03980939190856457  0.6796897887608743  0.11973733411382405  1.0000
  H   H36       1.0  0.9601906079319262  0.3203102111472932  0.88026266556959  1.0000
  H   H37       1.0  0.9335603141961203  0.6985800848488283  0.08671786461260021  1.0000
  H   H38       1.0  0.06643968564437057  0.3014199150593393  0.9132821350708138  1.0000
  H   H39       1.0  0.020744909101849597  0.8719149525941186  0.042453670827803124  1.0000
  H   H40       1.0  0.9792550911877018  0.12808504707345927  0.9575463295576825  1.0000
  H   H41       1.0  0.9244198982267136  0.887460227503064  0.9979174753772726  1.0000
  H   H42       1.0  0.07558010139736275  0.1125397721639657  0.002082525002076321  1.0000
  H   H43       1.0  0.9074772602258925  0.826976126471048  0.20437645846395744  1.0000
  H   H44       1.0  0.09252273994868039  0.1730238741872213  0.7956235412304612  1.0000
  H   H45       1.0  0.8130178387660606  0.8342283735673646  0.16206344427541125  1.0000
  H   H46       1.0  0.18698216107443036  0.1657716263408029  0.8379365554080027  1.0000
  H   H47       1.0  0.8820707377469975  0.017946143195810563  0.12606612957647154  1.0000
  H   H48       1.0  0.11792926187707878  0.9820538564712191  0.8739338708028774  1.0000
  H   H49       1.0  0.7644056380375663  0.9960185495371261  0.20052655426037058  1.0000
  H   H50       1.0  0.2355943615865099  0.003981450129903542  0.7994734461189783  1.0000
  H   H51       1.0  0.719190428780704  0.12505844755704276  0.06044996647511708  1.0000
  H   H52       1.0  0.2808095717252623  0.874941552351673  0.9395500332144335  1.0000
  H   H53       1.0  0.7321763739417795  0.004153922015989971  0.051777447063518015  1.0000
  H   H54       1.0  0.2678236258987115  0.9958460778921776  0.948222552619896  1.0000
  H   H55       1.0  0.8320791567701228  0.061022557309607185  0.9864035648838289  1.0000
  H   H56       1.0  0.16792084285395345  0.9389774423574224  0.013596435495520073  1.0000
  C   C1        1.0  0.28708482376832467  0.8589388289738468  0.41060189383434526  1.0000
  C   C2        1.0  0.7129151760721663  0.1410611709343208  0.5893981058490687  1.0000
  C   C3        1.0  0.3240875835145767  0.8898212317089432  0.31210456780545737  1.0000
  C   C4        1.0  0.6759124157781058  0.11017876870763993  0.6878954325787596  1.0000
  C   C5        1.0  0.31735363537674666  0.8314620074984024  0.2667408924213691  1.0000
  C   C6        1.0  0.6826463642473294  0.16853799216862725  0.7332591079579799  1.0000
  C   C7        1.0  0.2832886394539186  0.7422240524436227  0.3153486503187552  1.0000
  C   C8        1.0  0.7167113603865722  0.25777594746454485  0.6846513493646588  1.0000
  C   C9        1.0  0.26149299995687175  0.7087249395621592  0.41349342441447623  1.0000
  C   C10       1.0  0.7385069996672042  0.2912750601048704  0.5865065759648728  1.0000
  C   C11       1.0  0.2586353838458596  0.7667660838164373  0.4643671829233407  1.0000
  C   C12       1.0  0.7413646159946314  0.2332339160917302  0.5356328167600733  1.0000
  C   C13       1.0  0.3671004078565077  0.9767135498148196  0.2625577830749903  1.0000
  C   C14       1.0  0.6328995926494586  0.023286450093896165  0.7374422166145602  1.0000
  C   C15       1.0  0.447561199032649  0.9720387100183361  0.2945935510934439  1.0000
  C   C16       1.0  0.5524388014733171  0.027961289890379763  0.7054064485961067  1.0000
  C   C17       1.0  0.4405685070509913  0.054984012546651334  0.3209920289369918  1.0000
  C   C18       1.0  0.5594314925730847  0.9450159871203782  0.6790079714423572  1.0000
  C   C19       1.0  0.5128422540677213  0.04761075225011168  0.3581615735884081  1.0000
  C   C20       1.0  0.48715774577276955  0.9523892476580558  0.641838426095006  1.0000
  C   C21       1.0  0.5972138738536018  0.9556736895772588  0.36846855264787004  1.0000
  C   C22       1.0  0.4027861259868893  0.044326310330908815  0.6315314470355439  1.0000
  C   C23       1.0  0.6106136763514427  0.8726184951531276  0.3411228116343114  1.0000
  C   C24       1.0  0.3893863238231301  0.12738150550514185  0.6588771880601071  1.0000
  C   C25       1.0  0.5370814343284738  0.8820305574066226  0.30434667556447925  1.0000
  C   C26       1.0  0.4629185652956022  0.11796944226040708  0.6956533248148697  1.0000
  C   C27       1.0  0.3302769092557966  0.06386583429817903  0.1874682642816695  1.0000
  C   C28       1.0  0.6697230912501696  0.9361341656105368  0.8125317354078812  1.0000
  C   C29       1.0  0.397209131535647  0.11257178618991516  0.1056277679202318  1.0000
  C   C30       1.0  0.6027908680884292  0.8874282134771143  0.8943722324591171  1.0000
  C   C31       1.0  0.36288038695834407  0.19339921352370204  0.03140927582179771  1.0000
  C   C32       1.0  0.6371196126657321  0.8066007861433275  0.9685907245575514  1.0000
  C   C33       1.0  0.2580229850728886  0.2312356392292979  0.03615046396472935  1.0000
  C   C34       1.0  0.7419770145511877  0.7687643604377317  0.9638495364146196  1.0000
  C   C35       1.0  0.187572882798575  0.1887736646360235  0.11439127077345036  1.0000
  C   C36       1.0  0.8124271177073912  0.8112263352726923  0.8856087289161002  1.0000
  C   C37       1.0  0.2238099513194619  0.10739768335912034  0.1875737948939422  1.0000
  C   C38       1.0  0.776190048521029  0.8926023165490472  0.8124262047894718  1.0000
  C   C39       1.0  0.271557538832421  0.6843247157472501  0.26926146446182847  1.0000
  C   C40       1.0  0.7284424607916551  0.31567528391977967  0.7307385359175206  1.0000
  C   C41       1.0  0.35725456369856134  0.6451551385008573  0.19713621320352054  1.0000
  C   C42       1.0  0.6427454361419296  0.3548448614073102  0.8028637864798934  1.0000
  C   C43       1.0  0.46261672742452586  0.6061196546948711  0.19958253569675094  1.0000
  C   C44       1.0  0.5373832730814406  0.39388034521384463  0.8004174639927996  1.0000
  C   C45       1.0  0.5468704520848559  0.5818512736558573  0.12527765552705866  1.0000
  C   C46       1.0  0.4531295474242417  0.4181487270018638  0.8747223441612234  1.0000
  C   C47       1.0  0.5286937767564659  0.5954846194952897  0.0438316081186252  1.0000
  C   C48       1.0  0.4713062237495002  0.404515380413426  0.9561683915709255  1.0000
  C   C49       1.0  0.4281211344733532  0.6272366825738458  0.03846681462424609  1.0000
  C   C50       1.0  0.571878865150723  0.3727633170931837  0.9615331857551028  1.0000
  C   C51       1.0  0.3450872099111248  0.6492519186122782  0.1141464207656407  1.0000
  C   C52       1.0  0.6549127899293662  0.35074808129588936  0.8858535789177734  1.0000
  C   C53       1.0  0.1720049079189875  0.6670029178347667  0.3012945039636367  1.0000
  C   C54       1.0  0.8279950923705638  0.33299708183281107  0.6987054964218489  1.0000
  C   C55       1.0  0.07586792838963995  0.749685475277894  0.31268035605193195  1.0000
  C   C56       1.0  0.9241320718999115  0.2503145243896839  0.6873196443335537  1.0000
  C   C57       1.0  0.9802399299055625  0.7333186927824025  0.3497588164760033  1.0000
  C   C58       1.0  0.019760070269010156  0.2666813078758669  0.6502411832184153  1.0000
  C   C59       1.0  0.9774304768854116  0.6320977109663084  0.3740709060293366  1.0000
  C   C60       1.0  0.022569522407270875  0.3679022894502748  0.6259290943548803  1.0000
  C   C61       1.0  0.06859493875629305  0.547774828953917  0.36285769454700023  1.0000
  C   C62       1.0  0.9314050617496733  0.4522251709547988  0.6371423051425502  1.0000
  C   C63       1.0  0.16325136020843323  0.565932593560827  0.3269052947695127  1.0000
  C   C64       1.0  0.8367486399661394  0.4340674070974424  0.6730947049249059  1.0000
  C   C65       1.0  0.22914917284292902  0.7331346919520483  0.5650489151687974  1.0000
  C   C66       1.0  0.7708508276630374  0.2668653079566674  0.4349510845207532  1.0000
  C   C67       1.0  0.2914294723420165  0.731164723597013  0.6147897523231819  1.0000
  C   C68       1.0  0.7085705281639498  0.2688352763117027  0.38521024736636866  1.0000
  C   C69       1.0  0.24563703353459126  0.7704371454019069  0.6927701158912679  1.0000
  C   C70       1.0  0.7543629669713751  0.22956285450680897  0.30722988379828253  1.0000
  C   C71       1.0  0.3020964226815352  0.7614459084740022  0.7464767851266784  1.0000
  C   C72       1.0  0.6979035776080164  0.23855409119357585  0.2535232152588071  1.0000
  C   C73       1.0  0.40926138504935633  0.71400021129805  0.7217858192532681  1.0000
  C   C74       1.0  0.5907386147911348  0.28599978861011743  0.2782141804301458  1.0000
  C   C75       1.0  0.45974842561160595  0.6802107589057419  0.6427174642749752  1.0000
  C   C76       1.0  0.5402515748943603  0.3197892410029739  0.35728253541457533  1.0000
  C   C77       1.0  0.40136460150539977  0.6887730634463577  0.5908218053247042  1.0000
  C   C78       1.0  0.5986353981186764  0.31122693622067193  0.40917819505464476  1.0000
  C   C79       1.0  0.13766747828205045  0.6996568617947383  0.6173223009059373  1.0000
  C   C80       1.0  0.8623325222239159  0.3003431381139775  0.38267769878361324  1.0000
  C   C81       1.0  0.13750750431709116  0.6082457989161857  0.6962368416896284  1.0000
  C   C82       1.0  0.8624924949755916  0.3917542015003975  0.30376315869458853  1.0000
  C   C83       1.0  0.049921943300528814  0.5778864044080569  0.7500334666013305  1.0000
  C   C84       1.0  0.9500780572054374  0.4221135955006589  0.24996653308822003  1.0000
  C   C85       1.0  0.958011751395737  0.6374133140581911  0.7241697636888595  1.0000
  C   C86       1.0  0.04198824877883575  0.36258668660007826  0.27583023600555917  1.0000
  C   C87       1.0  0.9538817750687891  0.724698123351808  0.6449888686333743  1.0000
  C   C88       1.0  0.04611822543717716  0.2753018765569077  0.3550111310561762  1.0000
  C   C89       1.0  0.042005950585540984  0.7550634697681243  0.593740316708957  1.0000
  C   C90       1.0  0.9579940499204253  0.24493653014059133  0.4062596829805937  1.0000
  C   C91       1.0  0.10506933600450587  0.5942633440751796  0.9707716057893903  1.0000
  C   C92       1.0  0.8949306642850456  0.4057366555923984  0.029228394596095296  1.0000
  C   C93       1.0  0.07086817682184347  0.7070851820691979  0.9718678731675987  1.0000
  C   C94       1.0  0.9291318230186474  0.29291481783896967  0.028132126515815325  1.0000
  C   C95       1.0  0.9994984989209066  0.7265944406713879  0.06461710451209267  1.0000
  C   C96       1.0  0.0005015009195844737  0.27340555923677956  0.9353828951713213  1.0000
  C   C97       1.0  0.9570532287273055  0.8431635123179408  0.058019904544611464  1.0000
  C   C98       1.0  0.042946771562245994  0.1568364873496371  0.941980095840874  1.0000
  C   C99       1.0  0.8738579643002494  0.867645503662059  0.14508690883670322  1.0000
  C   C100      1.0  0.12614203499243282  0.1323544967545245  0.8549130915475137  1.0000
  C   C101      1.0  0.823703338760533  0.9855451193097863  0.13517725370674402  1.0000
  C   C102      1.0  0.17629666174543304  0.014454880598929569  0.8648227459828065  1.0000
  C   C103      1.0  0.7743456465276647  0.047524662788049954  0.05426384567818928  1.0000
  C   C104      1.0  0.22565435364690795  0.9524753378702195  0.9457361540162295  1.0000
  Cl  Cl1       1.0  0.2623118487594003  0.945369584299651  0.4668162686474591  1.0000
  Cl  Cl2       1.0  0.737688151746566  0.054630415609064883  0.5331837310420914  1.0000
  Cl  Cl3       1.0  0.35238346843881163  0.8708632547210444  0.14711321091579943  1.0000
  Cl  Cl4       1.0  0.6476165320671546  0.1291367451876714  0.8528867887737511  1.0000
  Cl  Cl5       1.0  0.251693341668806  0.5845622669205758  0.4724027321154514  1.0000
  Cl  Cl6       1.0  0.7483066586207454  0.415437732747002  0.5275972682700342  1.0000
  Cl  Cl7       1.0  0.3363762855485573  0.16964532684795325  0.31231242717670715  1.0000
  Cl  Cl8       1.0  0.6636237142919337  0.8303546730602143  0.6876875725067068  1.0000
  Cl  Cl9       1.0  0.6876153154507287  0.9450339686195535  0.4145204822872058  1.0000
  Cl  Cl10      1.0  0.3123846850552373  0.05496603128916243  0.5854795174023448  1.0000
  Cl  Cl11      1.0  0.5649373824726183  0.7823253174720654  0.2612352076214612  1.0000
  Cl  Cl12      1.0  0.4350626178169332  0.21767468219551261  0.7387647927640243  1.0000
  Cl  Cl13      1.0  0.5291889687905376  0.0681232133665461  0.09043958840108518  1.0000
  Cl  Cl14      1.0  0.4708110310499536  0.9318767865416213  0.9095604112823288  1.0000
  Cl  Cl15      1.0  0.2160855076542832  0.3332774375431134  0.9445343760445514  1.0000
  Cl  Cl16      1.0  0.7839144928516831  0.6667225623656025  0.055465623644999185  1.0000
  Cl  Cl17      1.0  0.13081173342859173  0.0654558728137784  0.28487194975595453  1.0000
  Cl  Cl18      1.0  0.869188266745981  0.934544127844491  0.7151280499384641  1.0000
  Cl  Cl19      1.0  0.4914335710094095  0.5792857291656812  0.3000801027654159  1.0000
  Cl  Cl20      1.0  0.5085664286146665  0.4207142705013485  0.699919897613933  1.0000
  Cl  Cl21      1.0  0.6319915496935303  0.5725826375500583  0.9488550131079583  1.0000
  Cl  Cl22      1.0  0.3680084508124358  0.42741736235865746  0.0511449865815923  1.0000
  Cl  Cl23      1.0  0.22398698261389066  0.690274249786963  0.09967866609528737  1.0000
  Cl  Cl24      1.0  0.7760130170101855  0.3097257498800668  0.9003213342840615  1.0000
  Cl  Cl25      1.0  0.07272865913622459  0.8791868997037908  0.2705381276397064  1.0000
  Cl  Cl26      1.0  0.927271340372873  0.12081310095393033  0.7294618720485756  1.0000
  Cl  Cl27      1.0  0.8590853547168655  0.612155572710961  0.41609506862252355  1.0000
  Cl  Cl28      1.0  0.1409146451236255  0.3878444271972065  0.5839049310608905  1.0000
  Cl  Cl29      1.0  0.27308609111935384  0.45748340855421554  0.31753232578119756  1.0000
  Cl  Cl30      1.0  0.7269139090552188  0.542516592104054  0.682467673913221  1.0000
  Cl  Cl31      1.0  0.11523516297596247  0.8409752253271564  0.7195994138985924  1.0000
  Cl  Cl32      1.0  0.8847648366481138  0.15902477433987317  0.2804005864807565  1.0000
  Cl  Cl33      1.0  0.4808877688323292  0.6966952553947062  0.7897940575894512  1.0000
  Cl  Cl34      1.0  0.5191122316736371  0.3033047445140095  0.21020594210009935  1.0000
  Cl  Cl35      1.0  0.4696670516691142  0.6346486567783701  0.5000225605914241  1.0000
  Cl  Cl36      1.0  0.5303329488368521  0.3653513431303457  0.49997743909812636  1.0000
  Cl  Cl37      1.0  0.25208518507922795  0.5225495404652198  0.7236563683349992  1.0000
  Cl  Cl38      1.0  0.7479148147612632  0.4774504594429475  0.2763436313484148  1.0000
  Cl  Cl39      1.0  0.8477581942136639  0.6028648580817629  0.7914595345251707  1.0000
  Cl  Cl40      1.0  0.152241805410412  0.39713514158526686  0.20854046585417815  1.0000
  Cl  Cl41      1.0  0.026075493428842248  0.8713274847406308  0.5039639238727223  1.0000
  Cl  Cl42      1.0  0.9739245064116487  0.12867251516753678  0.4960360758106917  1.0000
