data_image0
_chemical_formula_structural       H112C96N40O16
_chemical_formula_sum              "H112 C96 N40 O16"
_cell_length_a       28.863115039107843
_cell_length_b       7.243987989433247
_cell_length_c       11.886293532222261
_cell_angle_alpha    90.0
_cell_angle_beta     96.46587406112265
_cell_angle_gamma    90.0

_space_group_name_H-M_alt    "P 1"
_space_group_IT_number       1

loop_
  _space_group_symop_operation_xyz
  'x, y, z'

loop_
  _atom_site_type_symbol
  _atom_site_label
  _atom_site_symmetry_multiplicity
  _atom_site_fract_x
  _atom_site_fract_y
  _atom_site_fract_z
  _atom_site_occupancy
  H   H1        1.0  0.16571377865152692  0.6399418133715996  0.3190095251728912  1.0000
  H   H2        1.0  0.8342862211364032  0.6399418133715996  0.18099047473575025  1.0000
  H   H3        1.0  0.6657137787504509  0.1399418126422532  0.31900952527309384  1.0000
  H   H4        1.0  0.33428622138615977  0.1399418126422532  0.18099047472958738  1.0000
  H   H5        1.0  0.8342862214243884  0.36005818670663803  0.6809904754735182  1.0000
  H   H6        1.0  0.16571377859028977  0.36005818670663803  0.8190095249751671  1.0000
  H   H7        1.0  0.3342862213254643  0.8600581874359844  0.6809904753733155  1.0000
  H   H8        1.0  0.6657137786892137  0.8600581874359844  0.8190095250753697  1.0000
  H   H9        1.0  0.24553704594647566  0.2547132715696785  0.1447892241701857  1.0000
  H   H10       1.0  0.7544629541901349  0.2547132715696785  0.35521077583249555  1.0000
  H   H11       1.0  0.7455370456961773  0.7547132722990247  0.14478922333489627  1.0000
  H   H12       1.0  0.25446295409175285  0.7547132722990247  0.35521077657374517  1.0000
  H   H13       1.0  0.7544629541294395  0.7452867285085591  0.8552107764762237  1.0000
  H   H14       1.0  0.24553704588523848  0.7452867285085591  0.6447892239724616  1.0000
  H   H15       1.0  0.2544629543791961  0.2452867277792128  0.8552107764700608  1.0000
  H   H16       1.0  0.745537045635482  0.2452867277792128  0.6447892239786246  1.0000
  H   H17       1.0  0.2084228199019981  0.3436649209843282  0.3144339274773451  1.0000
  H   H18       1.0  0.7915771798859319  0.3436649209843282  0.1855660724312963  1.0000
  H   H19       1.0  0.7084228200009219  0.8436649217136747  0.31443392757754773  1.0000
  H   H20       1.0  0.2915771801356887  0.8436649217136747  0.18556607242513345  1.0000
  H   H21       1.0  0.7915771801733752  0.6563350790939093  0.6855660723276121  1.0000
  H   H22       1.0  0.20842281984076091  0.6563350790939093  0.8144339272796212  1.0000
  H   H23       1.0  0.29157718007445144  0.156335078364563  0.6855660722274094  1.0000
  H   H24       1.0  0.7084228199396847  0.156335078364563  0.8144339273798237  1.0000
  H   H25       1.0  0.1954487279261924  0.7586958548270581  0.9804449844228112  1.0000
  H   H26       1.0  0.8045512720884856  0.7586958548270581  0.5195550160258742  1.0000
  H   H27       1.0  0.6954487276764358  0.25869585547816687  0.9804449844289741  1.0000
  H   H28       1.0  0.3045512719895618  0.25869585547816687  0.5195550159256715  1.0000
  H   H29       1.0  0.8045512721497228  0.2413041452511795  0.019555016223598204  1.0000
  H   H30       1.0  0.19544872798688778  0.2413041452511795  0.480444983779083  1.0000
  H   H31       1.0  0.30455127205079896  0.7413041446000707  0.019555016123395625  1.0000
  H   H32       1.0  0.6954487277371313  0.7413041446000707  0.4804449837852458  1.0000
  H   H33       1.0  0.23941146052545673  0.46343483933118074  0.9763385017556537  1.0000
  H   H34       1.0  0.7605885394886795  0.46343483933118074  0.5236614978515794  1.0000
  H   H35       1.0  0.7394114606243807  0.963434840060527  0.9763385018558562  1.0000
  H   H36       1.0  0.2605885393897557  0.963434840060527  0.5236614977513768  1.0000
  H   H37       1.0  0.7605885395499168  0.536565160747057  0.023661498049303495  1.0000
  H   H38       1.0  0.23941146058669388  0.536565160747057  0.4763385019533777  1.0000
  H   H39       1.0  0.2605885394509928  0.03656516001771055  0.02366149794910086  1.0000
  H   H40       1.0  0.7394114603369374  0.03656516001771055  0.47633850195954064  1.0000
  H   H41       1.0  0.09061044414275479  0.3562971037175797  0.953499597232508  1.0000
  H   H42       1.0  0.9093895558713815  0.3562971037175797  0.5465004023747252  1.0000
  H   H43       1.0  0.5906104438929982  0.856297103066471  0.953499597238671  1.0000
  H   H44       1.0  0.40938955612113803  0.856297103066471  0.5465004023685622  1.0000
  H   H45       1.0  0.9093895559326187  0.6437028963606579  0.04650040257244916  1.0000
  H   H46       1.0  0.09061044420399196  0.6437028963606579  0.4534995974302321  1.0000
  H   H47       1.0  0.40938955583369474  0.14370289701176656  0.04650040247224655  1.0000
  H   H48       1.0  0.5906104439542355  0.14370289701176656  0.4534995974363949  1.0000
  H   H49       1.0  0.1195092146389613  0.17872421681103481  0.8805980519795247  1.0000
  H   H50       1.0  0.8804907853751749  0.17872421681103481  0.6194019476277084  1.0000
  H   H51       1.0  0.6195092147378852  0.6787242161599262  0.8805980520797274  1.0000
  H   H52       1.0  0.3804907852762511  0.6787242161599262  0.6194019475275058  1.0000
  H   H53       1.0  0.8804907854364121  0.8212757832672027  0.11940194782543247  1.0000
  H   H54       1.0  0.1195092147001985  0.8212757832672027  0.38059805217724874  1.0000
  H   H55       1.0  0.38049078533748826  0.3212757839183115  0.11940194772522984  1.0000
  H   H56       1.0  0.6195092144504419  0.3212757839183115  0.38059805218341164  1.0000
  H   H57       1.0  0.08914380744884569  0.3153612227591133  0.3445248600843573  1.0000
  H   H58       1.0  0.9108561926877647  0.3153612227591133  0.15547513991832393  1.0000
  H   H59       1.0  0.5891438071990891  0.8153612221080045  0.3445248600905201  1.0000
  H   H60       1.0  0.410856192588841  0.8153612221080045  0.15547513981812133  1.0000
  H   H61       1.0  0.9108561926270695  0.6846387773191243  0.6554751405620521  1.0000
  H   H62       1.0  0.08914380738760852  0.6846387773191243  0.8445248598866332  1.0000
  H   H63       1.0  0.4108561925281456  0.184638777970233  0.6554751404618496  1.0000
  H   H64       1.0  0.5891438074865324  0.184638777970233  0.8445248599868358  1.0000
  H   H65       1.0  0.12215877377350073  0.13822154888447535  0.4165684723408538  1.0000
  H   H66       1.0  0.8778412263631099  0.13822154888447535  0.08343152766182739  1.0000
  H   H67       1.0  0.6221587738724246  0.6382215482333666  0.4165684724410564  1.0000
  H   H68       1.0  0.37784122626418604  0.6382215482333666  0.08343152756162478  1.0000
  H   H69       1.0  0.8778412263018727  0.8617784511937623  0.5834315274641033  1.0000
  H   H70       1.0  0.12215877371226357  0.8617784511937623  0.9165684721431298  1.0000
  H   H71       1.0  0.3778412262029488  0.3617784504644159  0.5834315273639007  1.0000
  H   H72       1.0  0.6221587738111873  0.3617784504644159  0.9165684722433325  1.0000
  H   H73       1.0  0.04614493777082699  0.8774912133029806  0.15886428019339788  1.0000
  H   H74       1.0  0.9538550620171032  0.8774912133029806  0.34113571971524365  1.0000
  H   H75       1.0  0.5461449378697508  0.3774912125736343  0.15886428029360047  1.0000
  H   H76       1.0  0.45385506191817926  0.3774912125736343  0.34113571961504097  1.0000
  H   H77       1.0  0.953855061955866  0.12250878677525695  0.8411357195175195  1.0000
  H   H78       1.0  0.04614493805827026  0.12250878677525695  0.6588642800897135  1.0000
  H   H79       1.0  0.4538550622061643  0.6225087861241483  0.8411357203528089  1.0000
  H   H80       1.0  0.5461449378085137  0.6225087861241483  0.6588642800958764  1.0000
  H   H81       1.0  0.9936707155317396  0.7558316231317177  0.13428947002498406  1.0000
  H   H82       1.0  0.0063292842561905325  0.7558316231317177  0.36571052988365743  1.0000
  H   H83       1.0  0.4936707154328157  0.2558316237828264  0.13428946992478144  1.0000
  H   H84       1.0  0.5063292843551145  0.2558316237828264  0.36571052998386006  1.0000
  H   H85       1.0  0.006329284544175586  0.24416837694651988  0.8657105306214254  1.0000
  H   H86       1.0  0.9936707154705025  0.24416837694651988  0.6342894698272601  1.0000
  H   H87       1.0  0.506329284294419  0.7441683762954111  0.8657105306275883  1.0000
  H   H88       1.0  0.493670715720259  0.7441683762954111  0.6342894698210971  1.0000
  H   H89       1.0  0.08245942851631513  0.4081144922261667  0.15399086295982628  1.0000
  H   H90       1.0  0.9175405716202956  0.4081144922261667  0.3460091370428549  1.0000
  H   H91       1.0  0.5824594282665586  0.908114491575058  0.15399086296598916  1.0000
  H   H92       1.0  0.4175405715213716  0.908114491575058  0.3460091369426523  1.0000
  H   H93       1.0  0.9175405715590583  0.5918855078520708  0.8460091368451308  1.0000
  H   H94       1.0  0.08245942845561971  0.5918855078520708  0.6539908636035545  1.0000
  H   H95       1.0  0.41754057146013446  0.09188550850317966  0.8460091367449283  1.0000
  H   H96       1.0  0.5824594285545436  0.09188550850317966  0.6539908637037571  1.0000
  H   H97       1.0  0.9876970782316022  0.8269325472016231  0.9275564100415885  1.0000
  H   H98       1.0  0.012302921783075866  0.8269325472016231  0.5724435904070969  1.0000
  H   H99       1.0  0.48769707848135874  0.32693254647227676  0.9275564100354257  1.0000
  H   H100      1.0  0.5123029215333194  0.32693254647227676  0.5724435904132599  1.0000
  H   H101      1.0  0.012302921495632582  0.17306745287661449  0.07244359051078118  1.0000
  H   H102      1.0  0.9876970782922976  0.17306745287661449  0.42755640939786027  1.0000
  H   H103      1.0  0.5123029215945565  0.6730674522255058  0.07244359061098381  1.0000
  H   H104      1.0  0.48769707819337366  0.6730674522255058  0.42755640929765765  1.0000
  H   H105      1.0  0.04243523241490587  0.9347525327039883  0.9440572715339732  1.0000
  H   H106      1.0  0.9575647675992304  0.9347525327039883  0.5559427280732598  1.0000
  H   H107      1.0  0.5424352321651493  0.434752533355097  0.9440572715401361  1.0000
  H   H108      1.0  0.457564767848987  0.434752533355097  0.555942728067097  1.0000
  H   H109      1.0  0.9575647676604676  0.06524746737424934  0.055942728270983975  1.0000
  H   H110      1.0  0.04243523212746259  0.06524746737424934  0.4440572716376575  1.0000
  H   H111      1.0  0.4575647679102241  0.5652474667231406  0.05594272826482105  1.0000
  H   H112      1.0  0.5424352322263865  0.5652474667231406  0.44405727173786014  1.0000
  C   C1        1.0  0.17718273223482156  0.7178998843711324  0.14887449552049453  1.0000
  C   C2        1.0  0.8228172675531086  0.7178998843711324  0.3511255043881469  1.0000
  C   C3        1.0  0.6771827323337455  0.217899883641786  0.14887449562069716  1.0000
  C   C4        1.0  0.3228172678028652  0.217899883641786  0.3511255043819841  1.0000
  C   C5        1.0  0.8228172678405519  0.2821001157071053  0.8511255042844625  1.0000
  C   C6        1.0  0.1771827321735844  0.2821001157071053  0.6488744953227705  1.0000
  C   C7        1.0  0.322817267741628  0.7821001164364515  0.85112550418426  1.0000
  C   C8        1.0  0.6771827322725082  0.7821001164364515  0.6488744954229732  1.0000
  C   C9        1.0  0.18138602498998704  0.6006293917586144  0.24349595124980872  1.0000
  C   C10       1.0  0.8186139751466235  0.6006293917586144  0.25650404875287247  1.0000
  C   C11       1.0  0.6813860250889109  0.10062939240972318  0.24349595135001134  1.0000
  C   C12       1.0  0.31861397504769967  0.10062939240972318  0.25650404865266985  1.0000
  C   C13       1.0  0.8186139750853864  0.3993706083196232  0.7565040485551484  1.0000
  C   C14       1.0  0.1813860249287499  0.3993706083196232  0.7434959510520848  1.0000
  C   C15       1.0  0.3186139749864625  0.8993706076685144  0.7565040484549458  1.0000
  C   C16       1.0  0.6813860250276738  0.8993706076685144  0.7434959511522873  1.0000
  C   C17       1.0  0.22630072118838232  0.3840280939253254  0.1450183500499898  1.0000
  C   C18       1.0  0.7736992789482282  0.3840280939253254  0.3549816499526914  1.0000
  C   C19       1.0  0.7263007212873062  0.8840280932742166  0.1450183501501924  1.0000
  C   C20       1.0  0.2736992788493044  0.8840280932742166  0.35498164985248876  1.0000
  C   C21       1.0  0.7736992788869911  0.6159719061529122  0.8549816497549674  1.0000
  C   C22       1.0  0.22630072112714517  0.6159719061529122  0.6450183498522658  1.0000
  C   C23       1.0  0.2736992787880672  0.11597190680402099  0.8549816496547649  1.0000
  C   C24       1.0  0.7263007212260689  0.11597190680402099  0.6450183499524684  1.0000
  C   C25       1.0  0.20563027719918572  0.434795726414011  0.24113683653455836  1.0000
  C   C26       1.0  0.7943697225887445  0.434795726414011  0.25886316337408316  1.0000
  C   C27       1.0  0.7056302772981096  0.9347957257629023  0.241136836634761  1.0000
  C   C28       1.0  0.2943697224898205  0.9347957257629023  0.2588631632738805  1.0000
  C   C29       1.0  0.7943697225275073  0.5652042736642267  0.758863163176359  1.0000
  C   C30       1.0  0.20563027748662904  0.5652042736642267  0.7411368364308741  1.0000
  C   C31       1.0  0.2943697227772638  0.06520427431533535  0.7588631631701961  1.0000
  C   C32       1.0  0.7056302772368724  0.06520427431533535  0.741136836437037  1.0000
  C   C33       1.0  0.19805181982678388  0.6655336200215308  0.05265635059202049  1.0000
  C   C34       1.0  0.8019481803098267  0.6655336200215308  0.4473436494106607  1.0000
  C   C35       1.0  0.6980518195764854  0.16553362067263955  0.05265634975673108  1.0000
  C   C36       1.0  0.3019481802114446  0.16553362067263955  0.4473436501519104  1.0000
  C   C37       1.0  0.8019481802491314  0.3344663800567068  0.9473436500543889  1.0000
  C   C38       1.0  0.1980518197655467  0.3344663800567068  0.5526563503942965  1.0000
  C   C39       1.0  0.3019481801502074  0.834466379405598  0.9473436499541864  1.0000
  C   C40       1.0  0.6980518198644706  0.834466379405598  0.5526563504944991  1.0000
  C   C41       1.0  0.222607552481953  0.5003193634896621  0.0508241794753224  1.0000
  C   C42       1.0  0.7773924473059771  0.5003193634896621  0.44917582043331905  1.0000
  C   C43       1.0  0.7226075525808769  0.0003193627603158132  0.05082417957552502  1.0000
  C   C44       1.0  0.2773924475557337  0.0003193627603158132  0.4491758204271561  1.0000
  C   C45       1.0  0.77739244724474  0.4996806365885755  0.9491758202355949  1.0000
  C   C46       1.0  0.22260755242125763  0.4996806365885755  0.5508241801190507  1.0000
  C   C47       1.0  0.27739244749449654  0.9996806373179218  0.9491758202294323  1.0000
  C   C48       1.0  0.7226075525196397  0.9996806373179218  0.550824179377801  1.0000
  C   C49       1.0  0.15214684343775467  0.8964166105013167  0.14954762260155705  1.0000
  C   C50       1.0  0.8478531566988559  0.8964166105013167  0.35045237740112417  1.0000
  C   C51       1.0  0.6521468435366785  0.3964166097719704  0.1495476227017596  1.0000
  C   C52       1.0  0.34785315659993205  0.3964166097719704  0.35045237730092155  1.0000
  C   C53       1.0  0.8478531566376187  0.10358338957692088  0.8504523772034001  1.0000
  C   C54       1.0  0.1521468433765175  0.10358338957692088  0.6495476224038329  1.0000
  C   C55       1.0  0.34785315653869486  0.6035833903062673  0.8504523771031975  1.0000
  C   C56       1.0  0.6521468434754414  0.6035833903062673  0.6495476225040356  1.0000
  C   C57       1.0  0.11921552065041903  0.1444753831075694  0.05081407779897285  1.0000
  C   C58       1.0  0.8807844794861915  0.1444753831075694  0.44918592220370834  1.0000
  C   C59       1.0  0.6192155204006624  0.6444753838369157  0.05081407780513573  1.0000
  C   C60       1.0  0.38078447938726767  0.6444753838369157  0.4491859221035058  1.0000
  C   C61       1.0  0.8807844794254961  0.8555246169706682  0.9491859228474366  1.0000
  C   C62       1.0  0.11921552058918186  0.8555246169706682  0.5508140776012488  1.0000
  C   C63       1.0  0.3807844793265722  0.3555246162413218  0.9491859227472339  1.0000
  C   C64       1.0  0.6192155206881057  0.3555246162413218  0.5508140777014514  1.0000
  C   C65       1.0  0.11899936494858102  0.12741495034867012  0.2436249223974424  1.0000
  C   C66       1.0  0.8810006348393491  0.12741495034867012  0.25637507751119903  1.0000
  C   C67       1.0  0.618999365047505  0.6274149510780165  0.24362492249764506  1.0000
  C   C68       1.0  0.3810006350891057  0.6274149510780165  0.2563750775050362  1.0000
  C   C69       1.0  0.8810006347781119  0.8725850497295674  0.756375077313475  1.0000
  C   C70       1.0  0.1189993652360243  0.8725850497295674  0.7436249222937581  1.0000
  C   C71       1.0  0.3810006350278685  0.37258504900022116  0.7563750773073121  1.0000
  C   C72       1.0  0.6189993649862677  0.37258504900022116  0.7436249222999209  1.0000
  C   C73       1.0  0.050858515503952255  0.6205570559417372  0.07574872413767517  1.0000
  C   C74       1.0  0.9491414842845196  0.6205570559417372  0.4242512766124186  1.0000
  C   C75       1.0  0.5508585156023343  0.12055705659284591  0.07574872339642548  1.0000
  C   C76       1.0  0.4491414841855958  0.12055705659284591  0.424251276512216  1.0000
  C   C77       1.0  0.9491414842232826  0.3794429441365004  0.9242512764146945  1.0000
  C   C78       1.0  0.050858515791395525  0.3794429441365004  0.5757487240339909  1.0000
  C   C79       1.0  0.44914148447303903  0.8794429434853918  0.9242512764085317  1.0000
  C   C80       1.0  0.550858515541639  0.8794429434853918  0.5757487240401538  1.0000
  C   C81       1.0  0.024747787200745882  0.7961560743077962  0.09403061751280072  1.0000
  C   C82       1.0  0.9752522125871843  0.7961560743077962  0.40596938239584074  1.0000
  C   C83       1.0  0.5247477872996698  0.29615607357844986  0.09403061761300333  1.0000
  C   C84       1.0  0.4752522128374826  0.29615607357844986  0.4059693832311302  1.0000
  C   C85       1.0  0.9752522125264889  0.20384392577044141  0.905969383039569  1.0000
  C   C86       1.0  0.024747787139508714  0.20384392577044141  0.5940306173150767  1.0000
  C   C87       1.0  0.4752522127762454  0.7038439264997878  0.9059693830334061  1.0000
  C   C88       1.0  0.5247477872384326  0.7038439264997878  0.5940306174152793  1.0000
  C   C89       1.0  0.011371498737802844  0.9086325473760165  0.9872627447664789  1.0000
  C   C90       1.0  0.9886285012763334  0.9086325473760165  0.5127372548407544  1.0000
  C   C91       1.0  0.5113714988367267  0.40863254802712523  0.9872627448666814  1.0000
  C   C92       1.0  0.4886285011774095  0.40863254802712523  0.5127372547405517  1.0000
  C   C93       1.0  0.9886285013375705  0.09136745132176602  0.012737255038478364  1.0000
  C   C94       1.0  0.011371498799040012  0.09136745132176602  0.4872627449642029  1.0000
  C   C95       1.0  0.48862850123864665  0.5913674520511123  0.012737254938275749  1.0000
  C   C96       1.0  0.5113714985492834  0.5913674520511123  0.48726274497036576  1.0000
  N   N1        1.0  0.10643809791433012  0.22053112074872264  0.14646352348818173  1.0000
  N   N2        1.0  0.8935619018736  0.22053112074872264  0.35353647642045977  1.0000
  N   N3        1.0  0.606438098013254  0.7205311200976139  0.14646352358838435  1.0000
  N   N4        1.0  0.39356190212335657  0.7205311200976139  0.35353647641429686  1.0000
  N   N5        1.0  0.8935619018123627  0.779468879329515  0.8535364762227358  1.0000
  N   N6        1.0  0.10643809820177341  0.779468879329515  0.6464635233844975  1.0000
  N   N7        1.0  0.39356190206211944  0.2794688799806237  0.8535364762165727  1.0000
  N   N8        1.0  0.6064380979520169  0.2794688799806237  0.6464635233906604  1.0000
  N   N9        1.0  0.14142615757416394  0.961466360816663  0.2490604830240686  1.0000
  N   N10       1.0  0.8585738425624467  0.961466360816663  0.2509395169786126  1.0000
  N   N11       1.0  0.6414261576730877  0.4614663600873167  0.2490604831242712  1.0000
  N   N12       1.0  0.35857384246406454  0.4614663600873167  0.2509395177198623  1.0000
  N   N13       1.0  0.8585738425017513  0.038533639261574625  0.7509395176223408  1.0000
  N   N14       1.0  0.14142615751292675  0.038533639261574625  0.7490604828263444  1.0000
  N   N15       1.0  0.35857384240282736  0.538533639990921  0.7509395175221383  1.0000
  N   N16       1.0  0.6414261576118506  0.538533639990921  0.7490604829265471  1.0000
  N   N17       1.0  0.14213562087424575  0.9809280178770621  0.04908227365221422  1.0000
  N   N18       1.0  0.8578643789136844  0.9809280178770621  0.45091772625642723  1.0000
  N   N19       1.0  0.6421356209731698  0.48092801714771577  0.04908227375241685  1.0000
  N   N20       1.0  0.35786437916344094  0.48092801714771577  0.45091772625026433  1.0000
  N   N21       1.0  0.8578643792011277  0.0190719822011755  0.950917726152743  1.0000
  N   N22       1.0  0.14213562081355038  0.0190719822011755  0.5490822742959425  1.0000
  N   N23       1.0  0.3578643791022038  0.5190719829305218  0.9509177260525403  1.0000
  N   N24       1.0  0.6421356209124742  0.5190719829305218  0.5490822743961452  1.0000
  N   N25       1.0  0.10845892189978264  0.23307901703631873  0.9528943492935137  1.0000
  N   N26       1.0  0.8915410781148954  0.23307901703631873  0.5471056511551716  1.0000
  N   N27       1.0  0.6084589216500261  0.73307901638521  0.9528943492996768  1.0000
  N   N28       1.0  0.39154107836465196  0.73307901638521  0.5471056511490088  1.0000
  N   N29       1.0  0.8915410781755907  0.7669209830419189  0.04710565051144342  1.0000
  N   N30       1.0  0.10845892161233936  0.7669209830419189  0.45289434939719797  1.0000
  N   N31       1.0  0.3915410784258891  0.26692098231257255  0.047105651346732814  1.0000
  N   N32       1.0  0.6084589217112634  0.26692098231257255  0.45289434949740065  1.0000
  N   N33       1.0  0.1092360092852334  0.2007832967312518  0.34106950918722545  1.0000
  N   N34       1.0  0.8907639905026967  0.2007832967312518  0.158930490721416  1.0000
  N   N35       1.0  0.6092360093841573  0.7007832974605982  0.34106950928742813  1.0000
  N   N36       1.0  0.3907639907524533  0.7007832974605982  0.15893049071525311  1.0000
  N   N37       1.0  0.89076399079014  0.7992167019665307  0.6589304906177318  1.0000
  N   N38       1.0  0.10923600922399625  0.7992167019665307  0.8410695089895015  1.0000
  N   N39       1.0  0.39076399069121615  0.29921670261763944  0.6589304905175292  1.0000
  N   N40       1.0  0.6092360093229201  0.29921670261763944  0.841069509089704  1.0000
  O   O1        1.0  0.05790265693452639  0.5634145302219525  0.9804519307627377  1.0000
  O   O2        1.0  0.9420973430796099  0.5634145302219525  0.5195480688444954  1.0000
  O   O3        1.0  0.5579026570334503  0.06341452949260623  0.9804519308629404  1.0000
  O   O4        1.0  0.4420973429806859  0.06341452949260623  0.5195480687442928  1.0000
  O   O5        1.0  0.9420973427921665  0.43658546985628505  0.019548068948179707  1.0000
  O   O6        1.0  0.057902656995763566  0.43658546985628505  0.48045193096046174  1.0000
  O   O7        1.0  0.44209734304192316  0.9365854705856314  0.01954806894201683  1.0000
  O   O8        1.0  0.5579026570946874  0.9365854705856314  0.48045193106066436  1.0000
  O   O9        1.0  0.06541450492568686  0.5336637037001016  0.17092160195457437  1.0000
  O   O10       1.0  0.9345854952109237  0.5336637037001016  0.3290783980481068  1.0000
  O   O11       1.0  0.5654145046759304  0.033663702970755334  0.17092160196073727  1.0000
  O   O12       1.0  0.43458549511199984  0.033663702970755334  0.3290783979479042  1.0000
  O   O13       1.0  0.9345854951496865  0.46633629637813595  0.8290783978503827  1.0000
  O   O14       1.0  0.06541450486499145  0.46633629637813595  0.6709216025983026  1.0000
  O   O15       1.0  0.4345854950507627  0.9663362971074823  0.8290783977501802  1.0000
  O   O16       1.0  0.5654145046146931  0.9663362971074823  0.6709216017630132  1.0000
