data_image0
_chemical_formula_structural       H34C60Cl12
_chemical_formula_sum              "H34 C60 Cl12"
_cell_length_a       9.704993674577167
_cell_length_b       12.176998633487864
_cell_length_c       12.593077924734223
_cell_angle_alpha    61.67116003788729
_cell_angle_beta     87.61007587987251
_cell_angle_gamma    76.55547291973159

_space_group_name_H-M_alt    "P 1"
_space_group_IT_number       1

loop_
  _space_group_symop_operation_xyz
  'x, y, z'

loop_
  _atom_site_type_symbol
  _atom_site_label
  _atom_site_symmetry_multiplicity
  _atom_site_fract_x
  _atom_site_fract_y
  _atom_site_fract_z
  _atom_site_occupancy
  H   H1        1.0  0.2251214617286035  0.6181619784444056  0.6384274451762979  1.0000
  H   H2        1.0  0.7748785387562769  0.38183802133614453  0.3615725546551483  1.0000
  H   H3        1.0  0.36715225335924917  0.9302237268134478  0.3477429061969085  1.0000
  H   H4        1.0  0.6328477469571663  0.06977627335380657  0.6522570945379825  1.0000
  H   H5        1.0  0.25298263126456527  0.07864082413629503  0.4270597453668485  1.0000
  H   H6        1.0  0.747017369299788  0.921359175185798  0.5729402553696241  1.0000
  H   H7        1.0  0.10800410340666672  0.195354878639683  0.5412301652972243  1.0000
  H   H8        1.0  0.8919958970782138  0.8046451211408668  0.45876983453422193  1.0000
  H   H9        1.0  0.9635077076308861  0.2603309304256719  0.6775982218725016  1.0000
  H   H10       1.0  0.03649229285399424  0.739669069354878  0.32240177795894454  1.0000
  H   H11       1.0  0.9213104523364235  0.8717872110546181  0.9018949576011915  1.0000
  H   H12       1.0  0.07868954814845704  0.12821278872593186  0.09810504223025461  1.0000
  H   H13       1.0  0.2547955971800806  0.9024673280270815  0.8761154742127898  1.0000
  H   H14       1.0  0.7452044030568621  0.09753267259862965  0.123884525617075  1.0000
  H   H15       1.0  0.7015556960219895  0.81615358553527  0.8258674507108099  1.0000
  H   H16       1.0  0.2984443042944257  0.18384641463198464  0.1741325500240811  1.0000
  H   H17       1.0  0.6844194395158207  0.615700587300591  0.8261494913053495  1.0000
  H   H18       1.0  0.31558055969065407  0.38429941332627476  0.17385050851986156  1.0000
  H   H19       1.0  0.610153958127582  0.4206252276941254  0.8278498673666463  1.0000
  H   H20       1.0  0.389846041078893  0.5793747729327402  0.17215013245856484  1.0000
  H   H21       1.0  0.4920645807393305  0.2535322829877283  0.845932488441522  1.0000
  H   H22       1.0  0.5079354187150824  0.746467716793976  0.1540675113852707  1.0000
  H   H23       1.0  0.09542033963606167  0.4586844565888516  0.9044826965903977  1.0000
  H   H24       1.0  0.9045796598978239  0.541315542734396  0.09551730414142127  1.0000
  H   H25       1.0  0.22970776916240082  0.4054893832098478  0.6250587879441781  1.0000
  H   H26       1.0  0.7702922313224797  0.5945106165707019  0.37494121188726803  1.0000
  H   H27       1.0  0.01474932267676735  0.49249433822655003  0.6993618874198547  1.0000
  H   H28       1.0  0.9852506778875858  0.507505661095543  0.30063811331661794  1.0000
  H   H29       1.0  0.22898510802860605  0.37845881225810807  0.34035701268359947  1.0000
  H   H30       1.0  0.7710148911778688  0.6215411883687576  0.6596429871416117  1.0000
  H   H31       1.0  0.31903461896580776  0.4737442505759524  0.36975189933209923  1.0000
  H   H32       1.0  0.6809653803201399  0.5262557495924564  0.6302481013981385  1.0000
  H   H33       1.0  0.3259672346159213  0.3149892424622234  0.482395976385831  1.0000
  H   H34       1.0  0.6740327648384915  0.6850107573194809  0.5176040234409617  1.0000
  C   C1        1.0  0.09799643060246935  0.7722912045876804  0.7570688721113773  1.0000
  C   C2        1.0  0.9020035688519434  0.2277087951940241  0.24293112771541533  1.0000
  C   C3        1.0  0.1717455473269109  0.8007270474844416  0.6405640913338322  1.0000
  C   C4        1.0  0.8282544529100317  0.1992729531412697  0.3594359084960324  1.0000
  C   C5        1.0  0.23262968365122003  0.7176463979195222  0.5956388997142888  1.0000
  C   C6        1.0  0.767370315555255  0.2823536027073435  0.40436110011092236  1.0000
  C   C7        1.0  0.3038477721401069  0.7669388209465147  0.49026133593992494  1.0000
  C   C8        1.0  0.696152227066368  0.2330611796803509  0.5097386638852861  1.0000
  C   C9        1.0  0.3123864956244084  0.8953186379037209  0.43037168401264286  1.0000
  C   C10       1.0  0.6876135046125341  0.10468136272199033  0.5696283158172217  1.0000
  C   C11       1.0  0.2480636252923799  0.9782523765398632  0.4751749900092752  1.0000
  C   C12       1.0  0.7519363739140951  0.02174762408700244  0.524825009815936  1.0000
  C   C13       1.0  0.1767116542055673  0.9311530096845901  0.5801606363995321  1.0000
  C   C14       1.0  0.8232883450009078  0.06884699094227555  0.41983936342567907  1.0000
  C   C15       1.0  0.09815275806830129  0.9955270447084522  0.6448351557377795  1.0000
  C   C16       1.0  0.9018472424165792  0.0044729550720976705  0.3551648440936667  1.0000
  C   C17       1.0  0.06941516238161151  0.1234977191876064  0.6198943049985229  1.0000
  C   C18       1.0  0.9305848371522741  0.8765022801356411  0.3801056957332962  1.0000
  C   C19       1.0  0.9876840603291646  0.16056759741855398  0.6965366315187516  1.0000
  C   C20       1.0  0.012315938877310367  0.8394324032083117  0.3034633683064596  1.0000
  C   C21       1.0  0.9351749267738573  0.06962759464064826  0.7964511019748608  1.0000
  C   C22       1.0  0.06482507268055547  0.9303724051410561  0.2035488978519319  1.0000
  C   C23       1.0  0.9633995950922728  0.9404517067392709  0.823572611209839  1.0000
  C   C24       1.0  0.03660040539260758  0.05954829304127893  0.1764273886216072  1.0000
  C   C25       1.0  0.04624881651299862  0.904841601556257  0.7472973747051181  1.0000
  C   C26       1.0  0.9537511837239437  0.09515839906945432  0.25270262512474656  1.0000
  C   C27       1.0  0.20806364243915948  0.6757373525990673  0.8686372259008964  1.0000
  C   C28       1.0  0.7919363577977834  0.3242626480266438  0.13136277392896836  1.0000
  C   C29       1.0  0.33745912141100537  0.7298715658802882  0.8592475091898005  1.0000
  C   C30       1.0  0.6625408780434074  0.2701284339014159  0.14075249063699236  1.0000
  C   C31       1.0  0.3459628845701526  0.8407849918776246  0.8619799307409102  1.0000
  C   C32       1.0  0.6540371148842602  0.15921500790407989  0.13802006908588255  1.0000
  C   C33       1.0  0.478535329134316  0.8708694370770648  0.8474574139240042  1.0000
  C   C34       1.0  0.5214646711026265  0.12913056354864647  0.15254258590586037  1.0000
  C   C35       1.0  0.5992830400550766  0.791820983777543  0.8331654276368883  1.0000
  C   C36       1.0  0.40071696050927674  0.2081790155445503  0.16683457309958427  1.0000
  C   C37       1.0  0.5893920829896834  0.6796968725513352  0.8326703304047967  1.0000
  C   C38       1.0  0.41060791724725926  0.32030312807437616  0.16732966942506797  1.0000
  C   C39       1.0  0.4579960304946644  0.6487635544187267  0.8450697430980877  1.0000
  C   C40       1.0  0.5420039689597483  0.3512364453629777  0.15493025672870495  1.0000
  C   C41       1.0  0.417608889370426  0.5379354850314839  0.8504529803047037  1.0000
  C   C42       1.0  0.5823911111144544  0.4620645147490662  0.1495470195267424  1.0000
  C   C43       1.0  0.49718474487743963  0.43180577832591727  0.8413188310844654  1.0000
  C   C44       1.0  0.5028152556074408  0.5681942214546327  0.1586811687469809  1.0000
  C   C45       1.0  0.43104711333307355  0.3372476381614417  0.8519908183155664  1.0000
  C   C46       1.0  0.568952886903869  0.6627523624642696  0.1480091815142983  1.0000
  C   C47       1.0  0.28716972634652593  0.3483453326951378  0.8739876852454431  1.0000
  C   C48       1.0  0.7128302731078867  0.6516546670865667  0.12601231458134957  1.0000
  C   C49       1.0  0.20582976855497856  0.4537648778010943  0.8839796667199606  1.0000
  C   C50       1.0  0.794170231929902  0.5462351219794556  0.11602033311148569  1.0000
  C   C51       1.0  0.27198572621882394  0.5489213581753889  0.8694874889832245  1.0000
  C   C52       1.0  0.7280142732355889  0.45107864160631556  0.1305125108435683  1.0000
  C   C53       1.0  0.12905304584344918  0.44739315003017255  0.5693972921183779  1.0000
  C   C54       1.0  0.8709469544729663  0.5526068501370819  0.4306027086165131  1.0000
  C   C55       1.0  0.007390058555167275  0.4961086514877934  0.611481160677087  1.0000
  C   C56       1.0  0.9926099408992456  0.503891348293911  0.3885188391497057  1.0000
  C   C57       1.0  0.12405860728070381  0.4505431622870902  0.45691471460613853  1.0000
  C   C58       1.0  0.8759413932041765  0.5494568374934597  0.5430852852253076  1.0000
  C   C59       1.0  0.2558629112749628  0.4013350112635501  0.4101398742810053  1.0000
  C   C60       1.0  0.7441370881794499  0.5986649885181543  0.5898601255457874  1.0000
  Cl  Cl1       1.0  0.3834227826920626  0.6657327295296644  0.4323814814738616  1.0000
  Cl  Cl2       1.0  0.6165772167623501  0.3342672702520399  0.5676185183529312  1.0000
  Cl  Cl3       1.0  0.8312954377153959  0.11838632325821265  0.8890250343037186  1.0000
  Cl  Cl4       1.0  0.16870456149107918  0.8816136773686529  0.11097496552149246  1.0000
  Cl  Cl5       1.0  0.9472652482416624  0.7060447847741537  0.76137399726155  1.0000
  Cl  Cl6       1.0  0.05273475199528046  0.29395521585155765  0.23862600256831454  1.0000
  Cl  Cl7       1.0  0.49422114154238944  0.007524978842849384  0.8513854903096942  1.0000
  Cl  Cl8       1.0  0.5057788589424911  0.9924750209377006  0.14861450952175204  1.0000
  Cl  Cl9       1.0  0.2080020428783498  0.2277431680819389  0.891884899928532  1.0000
  Cl  Cl10      1.0  0.7919979573585928  0.7722568325437723  0.10811509990133265  1.0000
  Cl  Cl11      1.0  0.12930836158352127  0.6456920722908556  0.010224687419357746  1.0000
  Cl  Cl12      1.0  0.8706916387328942  0.35430792787639886  0.9897753133155333  1.0000
