data_image0
_chemical_formula_structural       H40C44N8O16
_chemical_formula_sum              "H40 C44 N8 O16"
_cell_length_a       7.694743305378321
_cell_length_b       5.996329382136032
_cell_length_c       22.410524560389568
_cell_angle_alpha    90.0
_cell_angle_beta     94.51048342102473
_cell_angle_gamma    90.0

_space_group_name_H-M_alt    "P 1"
_space_group_IT_number       1

loop_
  _space_group_symop_operation_xyz
  'x, y, z'

loop_
  _atom_site_type_symbol
  _atom_site_label
  _atom_site_symmetry_multiplicity
  _atom_site_fract_x
  _atom_site_fract_y
  _atom_site_fract_z
  _atom_site_occupancy
  H   H1        1.0  0.2716625226097883  0.5014073808148575  0.24069194088555768  1.0000
  H   H2        1.0  0.7283374774732588  0.0014073809929690336  0.259308059002028  1.0000
  H   H3        1.0  0.7283374775753801  0.49859261882891937  0.759308059250237  1.0000
  H   H4        1.0  0.2716625214240588  0.9985926186508077  0.7406919406474384  1.0000
  H   H5        1.0  0.1523225127380203  0.38408549517998314  0.1469176932896988  1.0000
  H   H6        1.0  0.8476774873450267  0.8840854950018714  0.3530823065978869  1.0000
  H   H7        1.0  0.8476774874471481  0.6159145061314806  0.8530823068460961  1.0000
  H   H8        1.0  0.15232251285582235  0.11591450464190527  0.6469176930921446  1.0000
  H   H9        1.0  0.9749774295692129  0.48602334432833283  0.053128261348009104  1.0000
  H   H10       1.0  0.025022570498153377  0.9860233441502212  0.4468717389853398  1.0000
  H   H11       1.0  0.025022570615955423  0.5139766553154439  0.9468717387877856  1.0000
  H   H12       1.0  0.9749774296870151  0.013976655493555527  0.553128261150455  1.0000
  H   H13       1.0  0.8929310697173619  0.14291146222770315  0.1236426851554007  1.0000
  H   H14       1.0  0.1070689303656851  0.6429114637172784  0.37635731473218503  1.0000
  H   H15       1.0  0.10706893048348716  0.8570885374160736  0.8763573145346308  1.0000
  H   H16       1.0  0.8929310685159516  0.3570885375941852  0.6236426853630446  1.0000
  H   H17       1.0  0.07348377806718925  0.04222584082093974  0.21755010661261112  1.0000
  H   H18       1.0  0.9265162220158578  0.5422258406428281  0.28244989327497466  1.0000
  H   H19       1.0  0.9265162221336599  0.9577741588228371  0.7824498930774205  1.0000
  H   H20       1.0  0.07348377816931054  0.45777415900094864  0.7175501068608202  1.0000
  H   H21       1.0  0.5173627941375861  0.5617173316119859  0.31014605680198554  1.0000
  H   H22       1.0  0.482637205945461  0.06171733179009752  0.18985394308560022  1.0000
  H   H23       1.0  0.48263720606326305  0.4382826680317909  0.689853942888046  1.0000
  H   H24       1.0  0.5173627942397073  0.9382826678536792  0.8101460570501946  1.0000
  H   H25       1.0  0.628286974274164  0.5104398215879336  0.41908788157894855  1.0000
  H   H26       1.0  0.37171302580888305  0.010439821766045182  0.08091211830863716  1.0000
  H   H27       1.0  0.3717130259110043  0.4895601780558432  0.5809121185568462  1.0000
  H   H28       1.0  0.6282869743919661  0.9895601778777315  0.9190878813813944  1.0000
  H   H29       1.0  0.5824711532650233  0.14508095779256583  0.4682768377537914  1.0000
  H   H30       1.0  0.4175288454988115  0.6450809576144543  0.03172316253899237  1.0000
  H   H31       1.0  0.4175288456166135  0.8549190418512109  0.5317231623414382  1.0000
  H   H32       1.0  0.5824711533828254  0.35491904202932256  0.9682768375562372  1.0000
  H   H33       1.0  0.41356603739609726  0.8456409391229412  0.40959969721447276  1.0000
  H   H34       1.0  0.5864339626869498  0.34564093930105283  0.090400302673113  1.0000
  H   H35       1.0  0.5864339627890711  0.15435906052083553  0.5904003029213221  1.0000
  H   H36       1.0  0.4135660374982186  0.654359060342724  0.9095996974626818  1.0000
  H   H37       1.0  0.3072102702832288  0.9253539718032324  0.30180394033028674  1.0000
  H   H38       1.0  0.6927897297998182  0.4253539719813441  0.198196059557299  1.0000
  H   H39       1.0  0.6927897299019397  0.07464602784054429  0.698196059805508  1.0000
  H   H40       1.0  0.3072102704010308  0.5746460276624327  0.8018039401327325  1.0000
  C   C1        1.0  0.12217965891301266  0.7068038144512743  0.18837365002876344  1.0000
  C   C2        1.0  0.8778203411700345  0.2068038146293859  0.31162634985882226  1.0000
  C   C3        1.0  0.8778203412878365  0.2931961851925025  0.8116263496612681  1.0000
  C   C4        1.0  0.12217965901513393  0.7931961850143908  0.6883736502769725  1.0000
  C   C5        1.0  0.09360321239964485  0.548811886452395  0.14179412060744992  1.0000
  C   C6        1.0  0.9063967876834023  0.04881188663050665  0.3582058792801358  1.0000
  C   C7        1.0  0.9063967864976726  0.45118811319138175  0.8582058790420165  1.0000
  C   C8        1.0  0.09360321250176615  0.9511881130132701  0.641794120855659  1.0000
  C   C9        1.0  0.9957989759210207  0.6055594679000948  0.08950434364144015  1.0000
  C   C10       1.0  0.004201024162026233  0.10555946807820647  0.4104956562461456  1.0000
  C   C11       1.0  0.004201024279828282  0.39444053174368193  0.9104956560485915  1.0000
  C   C12       1.0  0.995798976023142  0.8944405332332571  0.5895043438896492  1.0000
  C   C13       1.0  0.9249365418295414  0.8205817119818076  0.08355625780799894  1.0000
  C   C14       1.0  0.0750634582535056  0.32058171215991926  0.41644374207958684  1.0000
  C   C15       1.0  0.07506345835562687  0.1794182876619691  0.9164437423277959  1.0000
  C   C16       1.0  0.9249365419473435  0.6794182874838576  0.5835562576104448  1.0000
  C   C17       1.0  0.9503749481759  0.9781170089610238  0.12973398887935064  1.0000
  C   C18       1.0  0.049625051907147125  0.4781170091391355  0.37026601100823503  1.0000
  C   C19       1.0  0.04962505202494917  0.021882990682752863  0.8702660108106811  1.0000
  C   C20       1.0  0.9503749482780212  0.5218829905046413  0.6297339891275597  1.0000
  C   C21       1.0  0.04836449466873545  0.9216894566307567  0.18170875963963964  1.0000
  C   C22       1.0  0.9516355054143116  0.42168945680886827  0.31829124024794614  1.0000
  C   C23       1.0  0.9516355055164328  0.0783105430130201  0.8182912404961552  1.0000
  C   C24       1.0  0.04836449477085673  0.5783105428349085  0.6817087598878487  1.0000
  C   C25       1.0  0.49418217545501597  0.4117704453254109  0.33593563471003673  1.0000
  C   C26       1.0  0.505817824628031  0.9117704451472992  0.164064365177549  1.0000
  C   C27       1.0  0.5058178234266208  0.5882295559860528  0.664064365385193  1.0000
  C   C28       1.0  0.494182175572818  0.08822955616416435  0.8359356345124827  1.0000
  C   C29       1.0  0.5559000603702346  0.3779055778274778  0.39496433149467797  1.0000
  C   C30       1.0  0.4440999396971316  0.8779055776493662  0.10503566883867096  1.0000
  C   C31       1.0  0.4440999398149336  0.6220944234839859  0.6050356686411169  1.0000
  C   C32       1.0  0.5559000604880368  0.12209442199441059  0.8949643312971239  1.0000
  C   C33       1.0  0.5298127154052256  0.17337770555053458  0.4225091406401986  1.0000
  C   C34       1.0  0.47018728467782145  0.673377705372423  0.07749085924738716  1.0000
  C   C35       1.0  0.4701872847956235  0.8266222940932421  0.577490859049833  1.0000
  C   C36       1.0  0.5298127155073469  0.3266222942713538  0.9225091408884076  1.0000
  C   C37       1.0  0.4390208852383765  0.007042593444884576  0.38969119693286525  1.0000
  C   C38       1.0  0.5609791148289899  0.5070425932667729  0.11030880340048368  1.0000
  C   C39       1.0  0.5609791149467919  0.9929574061988922  0.6103088032029296  1.0000
  C   C40       1.0  0.43902088535617856  0.4929574063770038  0.889691196735311  1.0000
  C   C41       1.0  0.37776962898424954  0.04591306822140051  0.33079073510289136  1.0000
  C   C42       1.0  0.6222303710987975  0.5459130680432889  0.16920926478469434  1.0000
  C   C43       1.0  0.6222303698973873  0.9540869314223762  0.6692092649923382  1.0000
  C   C44       1.0  0.37776962910205153  0.45408693160048785  0.8307907349053372  1.0000
  N   N1        1.0  0.823730115700488  0.883849252142328  0.029668980634003646  1.0000
  N   N2        1.0  0.17626988438255903  0.3838492523204397  0.4703310192535821  1.0000
  N   N3        1.0  0.17626988450036107  0.11615074750144867  0.9703310190560279  1.0000
  N   N4        1.0  0.8237301158026092  0.616150747323337  0.5296689808822127  1.0000
  N   N5        1.0  0.4059472768980503  0.24634293512972494  0.3049089059659166  1.0000
  N   N6        1.0  0.594052723169316  0.7463429349516133  0.19509109436743235  1.0000
  N   N7        1.0  0.5940527232871181  0.7536570645140518  0.6950910941698782  1.0000
  N   N8        1.0  0.40594727701585237  0.2536570646921635  0.8049089057683625  1.0000
  O   O1        1.0  0.21911768451040517  0.6632359859763586  0.239080115573826  1.0000
  O   O2        1.0  0.7808823155726419  0.16323598615447016  0.26091988431375973  1.0000
  O   O3        1.0  0.780882315690444  0.33676401366741815  0.7609198841162056  1.0000
  O   O4        1.0  0.21911768461252645  0.8367640134893065  0.739080115822035  1.0000
  O   O5        1.0  0.7944392957059812  0.7424756707434321  0.9889989028861143  1.0000
  O   O6        1.0  0.20556070459698927  0.2424756692538568  0.5110010970521265  1.0000
  O   O7        1.0  0.20556070449486796  0.25752433056803153  0.01100109680391742  1.0000
  O   O8        1.0  0.794439295588179  0.7575243303899201  0.4889989030836683  1.0000
  O   O9        1.0  0.7674502501192351  0.07974723026800395  0.02542645000268202  1.0000
  O   O10       1.0  0.232549749963812  0.5797472300898924  0.4745735498849037  1.0000
  O   O11       1.0  0.23254975008161405  0.9202527693757727  0.9745735496873494  1.0000
  O   O12       1.0  0.7674502489178248  0.42025276955388446  0.525426450210326  1.0000
  O   O13       1.0  0.3483044909889407  0.2781859407139149  0.24804707831326486  1.0000
  O   O14       1.0  0.6516955090784258  0.7781859405358033  0.25195292202008407  1.0000
  O   O15       1.0  0.6516955091962277  0.721814058929862  0.7519529218225299  1.0000
  O   O16       1.0  0.3483044911067427  0.2218140591079735  0.7480470781157107  1.0000
