data_image0
_chemical_formula_structural       H44C80N4O14F12S4I4
_chemical_formula_sum              "H44 C80 N4 O14 F12 S4 I4"
_cell_length_a       10.017273312698348
_cell_length_b       10.670306689861793
_cell_length_c       18.775292434065765
_cell_angle_alpha    75.38148291432557
_cell_angle_beta     87.5196133112335
_cell_angle_gamma    81.86561092554388

_space_group_name_H-M_alt    "P 1"
_space_group_IT_number       1

loop_
  _space_group_symop_operation_xyz
  'x, y, z'

loop_
  _atom_site_type_symbol
  _atom_site_label
  _atom_site_symmetry_multiplicity
  _atom_site_fract_x
  _atom_site_fract_y
  _atom_site_fract_z
  _atom_site_occupancy
  H   H1        1.0  0.5691814129542833  0.5272834456220955  0.14002963846121694  1.0000
  H   H2        1.0  0.43081858745597706  0.4727165544170706  0.8599703615097265  1.0000
  H   H3        1.0  0.6600129875709477  0.41803013275240064  0.042090793026658836  1.0000
  H   H4        1.0  0.3399870128393126  0.5819698672867654  0.9579092069442847  1.0000
  H   H5        1.0  0.854326972841757  0.4942491371344246  0.9647073762353278  1.0000
  H   H6        1.0  0.14567302756850345  0.5057508629047414  0.03529262373561584  1.0000
  H   H7        1.0  0.9587918981071042  0.6810938862519322  0.9835281203553918  1.0000
  H   H8        1.0  0.04120810230315606  0.3189061137872338  0.016471879615551566  1.0000
  H   H9        1.0  0.7855303082699651  0.13908764760246844  0.9908191801736972  1.0000
  H   H10       1.0  0.21446969114179204  0.8609123524386064  0.009180819796533561  1.0000
  H   H11       1.0  0.5600591774976154  0.266603415657293  0.9724119333931251  1.0000
  H   H12       1.0  0.4399408219141417  0.7333965843837819  0.027588066577105722  1.0000
  H   H13       1.0  0.36334537320874916  0.18448128756167273  0.04732007014876098  1.0000
  H   H14       1.0  0.6366546262030078  0.815518712479402  0.95267992982147  1.0000
  H   H15       1.0  0.394793092174112  0.9695290681169398  0.1397106746010254  1.0000
  H   H16       1.0  0.6052069072376451  0.030470931924134914  0.8602893253692054  1.0000
  H   H17       1.0  0.8543615399625122  0.44672798563842575  0.2248418310005339  1.0000
  H   H18       1.0  0.1456384605887561  0.5532720134540795  0.775158168970313  1.0000
  H   H19       1.0  0.8709709434723301  0.21505763424709004  0.29770950782640027  1.0000
  H   H20       1.0  0.129029055930193  0.7849423655504311  0.702290492694281  1.0000
  H   H21       1.0  0.7068430362720867  0.1535210536415043  0.4008948623933283  1.0000
  H   H22       1.0  0.2931569631396702  0.8464789463995706  0.5991051375769025  1.0000
  H   H23       1.0  0.521975619541824  0.5559772909910672  0.3469844838903174  1.0000
  H   H24       1.0  0.47802438086843624  0.44402270904809876  0.6530155160806261  1.0000
  H   H25       1.0  0.35870534965421824  0.06657515336575485  0.57276247585239  1.0000
  H   H26       1.0  0.6412946507560421  0.9334248466734112  0.4272375241185534  1.0000
  H   H27       1.0  0.1744912904659742  0.03606058305249118  0.6661760635159252  1.0000
  H   H28       1.0  0.825508709944286  0.963939416986675  0.3338239364550183  1.0000
  H   H29       1.0  0.015299318838812363  0.22618979613949214  0.6853643210270849  1.0000
  H   H30       1.0  0.9847006805729447  0.7738102039015825  0.314635678943146  1.0000
  H   H31       1.0  0.8765787532362415  0.48745279013165826  0.6727686287576355  1.0000
  H   H32       1.0  0.12342124717401902  0.5125472099075077  0.32723137121330786  1.0000
  H   H33       1.0  0.8126129695291981  0.7290853688614658  0.6388685773861207  1.0000
  H   H34       1.0  0.18738703088106215  0.2709146311777002  0.3611314225848228  1.0000
  H   H35       1.0  0.9407690273885124  0.8723746545573573  0.5434716196500756  1.0000
  H   H36       1.0  0.059230973021747804  0.12762534548180882  0.4565283803208679  1.0000
  H   H37       1.0  0.3059166849930272  0.09321929587832901  0.4168361180361742  1.0000
  H   H38       1.0  0.6940833144187296  0.9067807041627459  0.5831638819340567  1.0000
  H   H39       1.0  0.4656955648072985  0.20410100381763327  0.324124343156197  1.0000
  H   H40       1.0  0.5343044356029618  0.7958989962215327  0.6758756568147465  1.0000
  H   H41       1.0  0.5940331688078315  0.07879527220824453  0.24007728131368158  1.0000
  H   H42       1.0  0.40596683160242886  0.9212047278309216  0.7599227186572619  1.0000
  H   H43       1.0  0.39081389762446994  0.7593240181795351  0.3236291107555947  1.0000
  H   H44       1.0  0.609186101787287  0.2406759818615398  0.6763708892146361  1.0000
  C   C1        1.0  0.7172540496713103  0.6613203362500536  0.11872956092690254  1.0000
  C   C2        1.0  0.28274595073894987  0.3386796637891123  0.881270439044041  1.0000
  C   C3        1.0  0.6553629978915869  0.5592083721713592  0.10659453279874355  1.0000
  C   C4        1.0  0.3446370025094395  0.44079162762425295  0.8934054677226503  1.0000
  C   C5        1.0  0.7060776129359857  0.4992668151281301  0.051158925983701205  1.0000
  C   C6        1.0  0.2939223874742747  0.500733184911036  0.9488410739872423  1.0000
  C   C7        1.0  0.8155092466007693  0.5419263217727512  0.0076972659559567825  1.0000
  C   C8        1.0  0.1844907528109878  0.4580736782683234  0.9923027340142742  1.0000
  C   C9        1.0  0.8756288708989483  0.6458798410700041  0.018556257912895145  1.0000
  C   C10       1.0  0.12437112851280874  0.3541201589710707  0.9814437420573356  1.0000
  C   C11       1.0  0.8255810072799156  0.7042084081627917  0.0747407509820639  1.0000
  C   C12       1.0  0.1744189931303447  0.2957915918763744  0.9252592489888796  1.0000
  C   C13       1.0  0.7174335802764893  0.9827439375134128  0.07664665420317313  1.0000
  C   C14       1.0  0.2825664191352677  0.01725606252766216  0.9233533457670576  1.0000
  C   C15       1.0  0.7012908031300725  0.10169860146293984  0.023920321433417355  1.0000
  C   C16       1.0  0.29870919728018785  0.898301398576226  0.9760796785375262  1.0000
  C   C17       1.0  0.5731932317359147  0.1746033981072939  0.014464407206608576  1.0000
  C   C18       1.0  0.42680676767584214  0.8253966019337812  0.9855355927636221  1.0000
  C   C19       1.0  0.4633150399479372  0.12787504449738327  0.05585008566738825  1.0000
  C   C20       1.0  0.536684959454586  0.8721249553001377  0.944149914853293  1.0000
  C   C21       1.0  0.48015086501876164  0.0076752675611782145  0.10797852649252479  1.0000
  C   C22       1.0  0.5198491343929954  0.9923247324798966  0.8920214734777062  1.0000
  C   C23       1.0  0.6088125879323317  0.9364057796458434  0.11901865279669667  1.0000
  C   C24       1.0  0.39118741147942526  0.06359422039523142  0.8809813471735343  1.0000
  C   C25       1.0  0.7843751039930377  0.41725969571378796  0.2700598574349345  1.0000
  C   C26       1.0  0.2156248964172226  0.582740304325378  0.729940142536009  1.0000
  C   C27       1.0  0.7933345041254996  0.2877034526476477  0.31082270295632874  1.0000
  C   C28       1.0  0.2066654952862574  0.7122965473934271  0.6891772970139021  1.0000
  C   C29       1.0  0.7016420383134856  0.25360273857955684  0.36752057109054975  1.0000
  C   C30       1.0  0.29835796109827145  0.746397261461518  0.6324794288796812  1.0000
  C   C31       1.0  0.600807380906966  0.3500638998567374  0.382529936089001  1.0000
  C   C32       1.0  0.3991926195032943  0.6499361001824288  0.6174700638819424  1.0000
  C   C33       1.0  0.5991567309918381  0.47818634552922284  0.33797949435252045  1.0000
  C   C34       1.0  0.40084326841991896  0.5218136545118517  0.6620205056177104  1.0000
  C   C35       1.0  0.50258374653018  0.3209494356747952  0.4381400207044657  1.0000
  C   C36       1.0  0.4974162538708464  0.6790505641208171  0.5618599798169281  1.0000
  C   C37       1.0  0.41477162231081427  0.29672371226363076  0.48469271872892344  1.0000
  C   C38       1.0  0.5852283780994461  0.7032762877755351  0.5153072812420201  1.0000
  C   C39       1.0  0.31064125925646174  0.27552050219353325  0.5375244516991171  1.0000
  C   C40       1.0  0.6893587401552952  0.7244794978475415  0.46247554827111365  1.0000
  C   C41       1.0  0.28924964330782965  0.1505392785124914  0.5804023105251459  1.0000
  C   C42       1.0  0.7107503571024306  0.8494607215266744  0.4195976894457977  1.0000
  C   C43       1.0  0.18499900950632253  0.1336564486760119  0.6325666126886346  1.0000
  C   C44       1.0  0.8150009909039377  0.8663435513631539  0.36743338728230895  1.0000
  C   C45       1.0  0.09565574101509568  0.23987211873633638  0.6442826078243433  1.0000
  C   C46       1.0  0.9043442593951647  0.7601278813028295  0.35571739214660014  1.0000
  C   C47       1.0  0.11275829659859697  0.36489089696659344  0.6017674646577387  1.0000
  C   C48       1.0  0.8872417038116633  0.6351091030725726  0.39823253531320474  1.0000
  C   C49       1.0  0.21914882597892774  0.37994054590707566  0.5501535987129811  1.0000
  C   C50       1.0  0.7808511744313327  0.6200594541320905  0.4498464012579623  1.0000
  C   C51       1.0  0.043651400055961874  0.49599043820825545  0.5959200348057296  1.0000
  C   C52       1.0  0.9563486003542985  0.5040095618309107  0.40407996516521383  1.0000
  C   C53       1.0  0.9323800080439977  0.5501853435102003  0.6308396558923796  1.0000
  C   C54       1.0  0.06761999136775936  0.44981465653087455  0.36916034407785125  1.0000
  C   C55       1.0  0.8973729259790437  0.6856472482781054  0.6110063306027854  1.0000
  C   C56       1.0  0.10262707343271339  0.3143527517629694  0.38899366936744534  1.0000
  C   C57       1.0  0.9695201803646428  0.766717043453803  0.5574501906760119  1.0000
  C   C58       1.0  0.03047982004561765  0.23328295658536286  0.4425498092949316  1.0000
  C   C59       1.0  0.08160286544040597  0.7148616978979414  0.5206255681664689  1.0000
  C   C60       1.0  0.9183971349698544  0.2851383021412246  0.47937443180447453  1.0000
  C   C61       1.0  0.11454241116589918  0.5785129021260637  0.5416987434372045  1.0000
  C   C62       1.0  0.8854575892443612  0.4214870979131023  0.458301256533739  1.0000
  C   C63       1.0  0.16203391344180196  0.7919975238874954  0.46875800589645245  1.0000
  C   C64       1.0  0.8379660869684583  0.20800247615167058  0.531241994074491  1.0000
  C   C65       1.0  0.24125740338988164  0.851117854907279  0.42664262271561654  1.0000
  C   C66       1.0  0.7587425960218754  0.14888214513379586  0.5733573772546143  1.0000
  C   C67       1.0  0.3347897197433831  0.9166687802351631  0.3780214208555375  1.0000
  C   C68       1.0  0.6652102806668773  0.08333121980400292  0.621978579115406  1.0000
  C   C69       1.0  0.3586371928312229  0.04372208481551894  0.3775702117734859  1.0000
  C   C70       1.0  0.6413628065805342  0.9562779152255558  0.622429788196745  1.0000
  C   C71       1.0  0.44891953314621313  0.10470057846848586  0.32668917863353936  1.0000
  C   C72       1.0  0.5510804672640471  0.8952994215706801  0.673310821337404  1.0000
  C   C73       1.0  0.518792469394572  0.03649704497231928  0.2792104281354438  1.0000
  C   C74       1.0  0.48120753101568836  0.9635029550668469  0.7207895718354996  1.0000
  C   C75       1.0  0.40822377977114366  0.8565660840247752  0.3268285754050931  1.0000
  C   C76       1.0  0.5917762206391166  0.1434339160143907  0.6731714245658503  1.0000
  C   C77       1.0  0.2650132768951919  0.4780193731983647  0.18928390285789462  1.0000
  C   C78       1.0  0.7349867235150683  0.5219806268408013  0.8107160971130488  1.0000
  C   C79       1.0  0.1119971716625369  0.0940366518321836  0.21191868312918605  1.0000
  C   C80       1.0  0.8880028277492201  0.9059633482088914  0.7880813168410448  1.0000
  N   N1        1.0  0.6881937175633418  0.5099389511297648  0.28370903780521506  1.0000
  N   N2        1.0  0.3118062818484151  0.4900610489113101  0.7162909621650158  1.0000
  N   N3        1.0  0.4982503933347423  0.9143037238030451  0.2801364321466226  1.0000
  N   N4        1.0  0.501749607075518  0.0856962762361208  0.7198635678243209  1.0000
  O   O1        1.0  0.22167835454342139  0.5090887973202968  0.5135573310384601  1.0000
  O   O2        1.0  0.7783216458668389  0.49091120271886934  0.4864426689324833  1.0000
  O   O3        1.0  0.3517067037457712  0.7060684230131601  0.15825460876137012  1.0000
  O   O4        1.0  0.6482932956659859  0.2939315770279148  0.8417453912088607  1.0000
  O   O5        1.0  0.14359071781830812  0.6879166315775365  0.09883813194631651  1.0000
  O   O6        1.0  0.8564092825919523  0.3120833684616295  0.9011618680246269  1.0000
  O   O7        1.0  0.14091797390359515  0.6821608548950879  0.23074836939741714  1.0000
  O   O8        1.0  0.859082025508162  0.31783914514598677  0.7692516305728138  1.0000
  O   O9        1.0  0.989780121504876  0.09647600307243587  0.09181583389409274  1.0000
  O   O10       1.0  0.010219877906881066  0.9035239969686392  0.9081841660761382  1.0000
  O   O11       1.0  0.8539501427578463  0.0786152129727573  0.20556930903703238  1.0000
  O   O12       1.0  0.14604985665391082  0.9213847870683174  0.7944306909331984  1.0000
  O   O13       1.0  0.934912006480714  0.2880749452942999  0.14298172167511938  1.0000
  O   O14       1.0  0.06508799392954619  0.7119250547448661  0.8570182782958241  1.0000
  F   F1        1.0  0.33336214108999324  0.4337956335606665  0.2542607712890137  1.0000
  F   F2        1.0  0.6666378593110333  0.5662043662349456  0.7457392292323802  1.0000
  F   F3        1.0  0.15319019885007046  0.41843940948980585  0.1955394792305458  1.0000
  F   F4        1.0  0.8468098005616863  0.5815605905512691  0.804460520739685  1.0000
  F   F5        1.0  0.34641996367179595  0.4398117235738865  0.13640209291035493  1.0000
  F   F6        1.0  0.6535800357399612  0.5601882764671882  0.8635979070598759  1.0000
  F   F7        1.0  0.21625889139911084  0.15181247826810054  0.17536312133207582  1.0000
  F   F8        1.0  0.7837411090111496  0.8481875217710654  0.8246368786388677  1.0000
  F   F9        1.0  0.14733516750092937  0.9626240621253715  0.22579878967517666  1.0000
  F   F10       1.0  0.8526648319108275  0.037375937915703136  0.7742012102950542  1.0000
  F   F11       1.0  0.0963345297017589  0.12653346712641073  0.27776677461340854  1.0000
  F   F12       1.0  0.9036654707085013  0.8734665329127552  0.722233225357535  1.0000
  S   S1        1.0  0.22077836267700918  0.6597712452055168  0.16752900318822433  1.0000
  S   S2        1.0  0.7792216367347479  0.34022875483555803  0.8324709967820065  1.0000
  S   S3        1.0  0.9531166473272988  0.14671840916986917  0.1576222555853713  1.0000
  S   S4        1.0  0.04688335208445814  0.8532815908712056  0.8423777443848596  1.0000
  I   I1        1.0  0.6382331826005027  0.7567230496537648  0.20167933680160813  1.0000
  I   I2        1.0  0.3617668178097577  0.24327695038540123  0.7983206631693353  1.0000
  I   I3        1.0  0.9100418150046028  0.8668959620242995  0.0899198727697204  1.0000
  I   I4        1.0  0.0899581844071543  0.13310403801677545  0.9100801272005106  1.0000
