data_image0
_chemical_formula_structural       H38C46N2O14
_chemical_formula_sum              "H38 C46 N2 O14"
_cell_length_a       9.74221065344566
_cell_length_b       9.972561650023847
_cell_length_c       10.39260654456338
_cell_angle_alpha    84.90057148586365
_cell_angle_beta     87.1013465280815
_cell_angle_gamma    72.56720924427083

_space_group_name_H-M_alt    "P 1"
_space_group_IT_number       1

loop_
  _space_group_symop_operation_xyz
  'x, y, z'

loop_
  _atom_site_type_symbol
  _atom_site_label
  _atom_site_symmetry_multiplicity
  _atom_site_fract_x
  _atom_site_fract_y
  _atom_site_fract_z
  _atom_site_occupancy
  H   H1        1.0  0.15538047535034194  0.623511688589552  0.4997269851561237  1.0000
  H   H2        1.0  0.844619524736642  0.376488311122517  0.5002730155877365  1.0000
  H   H3        1.0  0.09666183583754152  0.8515627209429794  0.5528390238686595  1.0000
  H   H4        1.0  0.9033381642551414  0.1484372787832203  0.4471609759116347  1.0000
  H   H5        1.0  0.25496774181661397  0.9244858949621029  0.7019560545452397  1.0000
  H   H6        1.0  0.7450322582760688  0.075514104764097  0.2980439452350544  1.0000
  H   H7        1.0  0.4678694911222779  0.739271762404637  0.7964041179757803  1.0000
  H   H8        1.0  0.53213050864109  0.2607282383615153  0.20359588270637508  1.0000
  H   H9        1.0  0.626828311924909  0.4888767431347092  0.8059158601269969  1.0000
  H   H10       1.0  0.37317168816777385  0.5111232565914906  0.19408413965329738  1.0000
  H   H11       1.0  0.6722184255253862  0.24571710724558637  0.7405117308598842  1.0000
  H   H12       1.0  0.32778157456729645  0.7542828924806135  0.25948826892040994  1.0000
  H   H13       1.0  0.5067887219545233  0.1887617348650953  0.5940442795395507  1.0000
  H   H14       1.0  0.49321127813815946  0.8112382648611045  0.4059557202407434  1.0000
  H   H15       1.0  0.30043697818790716  0.277497316074334  0.46679927473169636  1.0000
  H   H16       1.0  0.6995630219047757  0.7225026836518658  0.5332007250485978  1.0000
  H   H17       1.0  0.5849782830988394  0.8910791977883478  0.7211842519228819  1.0000
  H   H18       1.0  0.41502171667022786  0.10892080299193523  0.27881574779570717  1.0000
  H   H19       1.0  0.6045034748653788  0.031871413078367494  0.022964968099729144  1.0000
  H   H20       1.0  0.395496525227304  0.9681285866478323  0.9770350316805652  1.0000
  H   H21       1.0  0.8030202433633423  0.13258499785232633  0.05619107969242925  1.0000
  H   H22       1.0  0.19697975672934043  0.8674150018738734  0.9438089200878651  1.0000
  H   H23       1.0  0.9876156507199875  0.1364081152068593  0.8810456601331134  1.0000
  H   H24       1.0  0.01238434937269532  0.8635918845193407  0.11895433964718088  1.0000
  H   H25       1.0  0.970833703068711  0.03718887710028339  0.6729325260331143  1.0000
  H   H26       1.0  0.02916629702397179  0.9628111226259164  0.32706747374717987  1.0000
  H   H27       1.0  0.9030918116965284  0.5403911829223716  0.6640434450800271  1.0000
  H   H28       1.0  0.09690818839615431  0.4596088168038281  0.3359565547002671  1.0000
  H   H29       1.0  0.0037368922810663563  0.7306217395361316  0.8961265043765027  1.0000
  H   H30       1.0  0.9962631074880006  0.2693782612441514  0.1038734953420866  1.0000
  H   H31       1.0  0.2090798327700234  0.6154869891257253  0.04031914504525093  1.0000
  H   H32       1.0  0.7909201673226594  0.3845130106004745  0.9596808547350433  1.0000
  H   H33       1.0  0.347808723054339  0.36090577958228176  0.0245045644300779  1.0000
  H   H34       1.0  0.6521912770383439  0.6390942201439181  0.9754954353502162  1.0000
  H   H35       1.0  0.28056475209178866  0.22622094581737015  0.8607653530037636  1.0000
  H   H36       1.0  0.7194352479951951  0.7737790538946988  0.13923464774009672  1.0000
  H   H37       1.0  0.13470388419582122  0.15101707712390328  0.5916002527461162  1.0000
  H   H38       1.0  0.8652961158968615  0.8489829226022968  0.4083997470341779  1.0000
  C   C1        1.0  0.193277169643536  0.7778300692692267  0.5946233880361561  1.0000
  C   C2        1.0  0.8067228304491467  0.22216993045697309  0.405376611744138  1.0000
  C   C3        1.0  0.2811146634200092  0.8153973031684645  0.6785971945049897  1.0000
  C   C4        1.0  0.7188853366726736  0.18460269655773537  0.32140280527530457  1.0000
  C   C5        1.0  0.3987946414084478  0.7127672397534824  0.7297731132854998  1.0000
  C   C6        1.0  0.6012053586785361  0.28723275995858644  0.27022688745836043  1.0000
  C   C7        1.0  0.5535881729375507  0.46355879577261083  0.742972395915863  1.0000
  C   C8        1.0  0.44641182683151626  0.5364412050076723  0.25702760380272616  1.0000
  C   C9        1.0  0.5783880749273611  0.32891078153027437  0.7055443547484745  1.0000
  C   C10       1.0  0.42161192516532175  0.6710892181959255  0.29445564503181965  1.0000
  C   C11       1.0  0.48604875311801  0.29620949837055316  0.6213985945104695  1.0000
  C   C12       1.0  0.5139512469746728  0.7037905013556467  0.37860140526982455  1.0000
  C   C13       1.0  0.3672172374859776  0.4001775507275404  0.5713331971342438  1.0000
  C   C14       1.0  0.6327827626010062  0.5998224489845285  0.4286668036096164  1.0000
  C   C15       1.0  0.33999113981346374  0.5394453476044038  0.6098792267193948  1.0000
  C   C16       1.0  0.6600088599556033  0.46055465317587935  0.39012077299919445  1.0000
  C   C17       1.0  0.43246421173368377  0.5719244082000686  0.6964475839348457  1.0000
  C   C18       1.0  0.5675357880296842  0.42807559256608363  0.30355241674730954  1.0000
  C   C19       1.0  0.6777133392533238  0.9747558913284493  0.8301965678174694  1.0000
  C   C20       1.0  0.3222866608393591  0.025244108397750636  0.1698034319628247  1.0000
  C   C21       1.0  0.6862154925837937  0.03164417358726753  0.9473710471424257  1.0000
  C   C22       1.0  0.31378450750888914  0.9683558261389322  0.05262895263786839  1.0000
  C   C23       1.0  0.7970272200276752  0.08884276018346986  0.9648299663637266  1.0000
  C   C24       1.0  0.20297277974139177  0.9111572405968132  0.0351700333548624  1.0000
  C   C25       1.0  0.9008805329886823  0.09164086235942404  0.8667860010226598  1.0000
  C   C26       1.0  0.09911946710400045  0.9083591373667756  0.13321399875763437  1.0000
  C   C27       1.0  0.8927926918197904  0.03510967374817174  0.7510301641782596  1.0000
  C   C28       1.0  0.10720730827289231  0.9648903259780279  0.24896983560203453  1.0000
  C   C29       1.0  0.7825921464552374  0.9757453136135555  0.7305131567179346  1.0000
  C   C30       1.0  0.21740785331382953  0.024254687166727594  0.26948684300065456  1.0000
  C   C31       1.0  0.7756870281110092  0.9150187198270071  0.6070423245304493  1.0000
  C   C32       1.0  0.2243129719759746  0.08498127988506171  0.39295767621341104  1.0000
  C   C33       1.0  0.02535184173176583  0.5441728588401911  0.7989007041824913  1.0000
  C   C34       1.0  0.974648158360917  0.4558271408860087  0.20109929559780304  1.0000
  C   C35       1.0  0.06579255071670072  0.6204425510598842  0.8897621486045091  1.0000
  C   C36       1.0  0.9342074490466671  0.379557449706268  0.11023785207764612  1.0000
  C   C37       1.0  0.18049840826532623  0.5545256441404437  0.9695949832952734  1.0000
  C   C38       1.0  0.8195015914980418  0.4454743566257085  0.030405017386881946  1.0000
  C   C39       1.0  0.25864322037714227  0.4121797753028281  0.9609378091142137  1.0000
  C   C40       1.0  0.7413567797155405  0.5878202244233718  0.03906219066608054  1.0000
  C   C41       1.0  0.22075066560382822  0.33635919775163303  0.8705647772082572  1.0000
  C   C42       1.0  0.7792493344888545  0.6636408019745669  0.12943522257203685  1.0000
  C   C43       1.0  0.10426900165735652  0.4002313295177891  0.7887351924706022  1.0000
  C   C44       1.0  0.8957309981117105  0.599768671262494  0.21126480724798694  1.0000
  C   C45       1.0  0.066785762142699  0.32174490278452605  0.6900524190556735  1.0000
  C   C46       1.0  0.9332142379499839  0.6782550969416739  0.30994758072462064  1.0000
  N   N1        1.0  0.22377962160430592  0.6449744639636824  0.5639511792928925  1.0000
  N   N2        1.0  0.7762203784883768  0.3550255357625175  0.43604882048740173  1.0000
  O   O1        1.0  0.27473654810983617  0.37995851826486765  0.48945347177613857  1.0000
  O   O2        1.0  0.7252634516592308  0.6200414825154155  0.5105465279424506  1.0000
  O   O3        1.0  0.568162109663293  0.9214468767803053  0.8138150334337615  1.0000
  O   O4        1.0  0.4318378904236909  0.07855312293176353  0.18618496731009881  1.0000
  O   O5        1.0  0.8749288307473919  0.9118614507037356  0.5215061846467538  1.0000
  O   O6        1.0  0.125071169021675  0.08813855007654765  0.47849381507183525  1.0000
  O   O7        1.0  0.6681033439174558  0.8682798515826476  0.5909843236744642  1.0000
  O   O8        1.0  0.3318966558459123  0.1317201491835044  0.40901567700769115  1.0000
  O   O9        1.0  0.9134623150110637  0.6114679342340646  0.7230575922186517  1.0000
  O   O10       1.0  0.08653768508161905  0.38853206549213526  0.27694240756164246  1.0000
  O   O11       1.0  0.14982142480535487  0.1919305892799701  0.6806994061857832  1.0000
  O   O12       1.0  0.850178575287328  0.8080694104462297  0.319300593594511  1.0000
  O   O13       1.0  0.9607292323697724  0.37835853129405567  0.6185385247629804  1.0000
  O   O14       1.0  0.0392707673935958  0.6216414694720965  0.3814614759191748  1.0000
