data_image0
_chemical_formula_structural       H48C64N8O8F6I6
_chemical_formula_sum              "H48 C64 N8 O8 F6 I6"
_cell_length_a       4.827542157628072
_cell_length_b       14.144803009368811
_cell_length_c       23.613435915366715
_cell_angle_alpha    82.98076811844881
_cell_angle_beta     90.08519550531919
_cell_angle_gamma    85.56363461087514

_space_group_name_H-M_alt    "P 1"
_space_group_IT_number       1

loop_
  _space_group_symop_operation_xyz
  'x, y, z'

loop_
  _atom_site_type_symbol
  _atom_site_label
  _atom_site_symmetry_multiplicity
  _atom_site_fract_x
  _atom_site_fract_y
  _atom_site_fract_z
  _atom_site_occupancy
  H   H1        1.0  0.7485197722766092  0.9428099528390499  0.5341005700457536  1.0000
  H   H2        1.0  0.25148022727508285  0.05719004736119575  0.4658994299469685  1.0000
  H   H3        1.0  0.06311332656504014  0.869160438573999  0.6139710307399953  1.0000
  H   H4        1.0  0.9368866731642811  0.13083956091752869  0.38602896925102076  1.0000
  H   H5        1.0  0.44096617329385024  0.7483257835120922  0.5967867024485719  1.0000
  H   H6        1.0  0.559033828505608  0.25167421598488954  0.40321329754419316  1.0000
  H   H7        1.0  0.5910469207750194  0.9527856790621572  0.4382595786628154  1.0000
  H   H8        1.0  0.40895308084680965  0.047214321143542404  0.5617404213316558  1.0000
  H   H9        1.0  0.5886279820827267  0.7958860134462581  0.2921194025105183  1.0000
  H   H10       1.0  0.4113720174689652  0.20411398675398762  0.7078805974822038  1.0000
  H   H11       1.0  0.2282802140391635  0.870697120161431  0.21984512178585958  1.0000
  H   H12       1.0  0.7717197856901576  0.12930287933009668  0.7801548782051563  1.0000
  H   H13       1.0  0.05678784138319128  0.04254044944486158  0.22152476864686577  1.0000
  H   H14       1.0  0.9432121583461299  0.9574595500466662  0.7784752313441502  1.0000
  H   H15       1.0  0.5674136351859136  0.06660968994019245  0.35926092393322007  1.0000
  H   H16       1.0  0.4325863643657784  0.9333903102600531  0.6407390760595021  1.0000
  H   H17       1.0  0.83117162919639  0.6829140347653584  0.5590893868781659  1.0000
  H   H18       1.0  0.1688283726030682  0.3170859647316233  0.44091061311459906  1.0000
  H   H19       1.0  0.8504921554938899  0.5821875027686797  0.5195526721716126  1.0000
  H   H20       1.0  0.1495078442354312  0.41781249672284804  0.48044732781940325  1.0000
  H   H21       1.0  0.584817353901269  0.5933858139285327  0.5720278221965382  1.0000
  H   H22       1.0  0.4151826458280521  0.40661418556299517  0.42797217779447755  1.0000
  H   H23       1.0  0.06327093460744694  0.8037631624340336  0.3831279548978537  1.0000
  H   H24       1.0  0.9367290670143821  0.19623683777166614  0.6168720450966175  1.0000
  H   H25       1.0  0.34175910084735944  0.4587699933903488  0.0162586041291324  1.0000
  H   H26       1.0  0.6582408987043326  0.541230006809897  0.9837413958635897  1.0000
  H   H27       1.0  0.9883082110530783  0.4938204070997673  0.08974925641738689  1.0000
  H   H28       1.0  0.011691788513809587  0.5061795930099626  0.91025074400204  1.0000
  H   H29       1.0  0.7738631734146636  0.36194361896276406  0.14706777723544226  1.0000
  H   H30       1.0  0.22613682613702843  0.6380563812374817  0.8529322227572799  1.0000
  H   H31       1.0  0.6226441056646522  0.34723821997792254  0.968002235493622  1.0000
  H   H32       1.0  0.3773558938870398  0.6527617802223231  0.03199776449910024  1.0000
  H   H33       1.0  0.7445075956620897  0.02615103407362166  0.9622783549020378  1.0000
  H   H34       1.0  0.25549240406723156  0.973848965417906  0.037721645088978066  1.0000
  H   H35       1.0  0.09514902132775889  0.9771286124442645  0.891665592593683  1.0000
  H   H36       1.0  0.9048509782239331  0.022871387755981125  0.10833440739903893  1.0000
  H   H37       1.0  0.3791194921057167  0.10371353573182662  0.8408247321173431  1.0000
  H   H38       1.0  0.6208805074459754  0.896286464468419  0.15917526787537908  1.0000
  H   H39       1.0  0.9954438463849349  0.3137713132866862  0.9271266412674334  1.0000
  H   H40       1.0  0.004556153359581988  0.686228686114326  0.07287335915028731  1.0000
  H   H41       1.0  0.7632135916277316  0.21918842038406813  0.2137031737696328  1.0000
  H   H42       1.0  0.2367864079239605  0.7808115798161777  0.7862968262230892  1.0000
  H   H43       1.0  0.6026641830312259  0.11957844239340855  0.19103209778532482  1.0000
  H   H44       1.0  0.39733581859060324  0.880421557812291  0.8089679022091464  1.0000
  H   H45       1.0  0.5059483514564881  0.23774290044669627  0.1576980122801106  1.0000
  H   H46       1.0  0.4940516501653411  0.7622570997590034  0.8423019877143606  1.0000
  H   H47       1.0  0.44809310907739835  0.14063553498035244  0.03359418719296619  1.0000
  H   H48       1.0  0.5519068904742939  0.8593644652198932  0.966405812799756  1.0000
  C   C1        1.0  0.9563469581133266  0.8643519258281464  0.47152353014177695  1.0000
  C   C2        1.0  0.04365304161599463  0.13564807366338139  0.5284764698492389  1.0000
  C   C3        1.0  0.9185892720035407  0.8904388040738322  0.5269923600945984  1.0000
  C   C4        1.0  0.08141072754815147  0.10956119612641334  0.4730076398981237  1.0000
  C   C5        1.0  0.0944873024653997  0.8500171576768134  0.5710137510923375  1.0000
  C   C6        1.0  0.9055126970862923  0.1499828425234323  0.4289862489003846  1.0000
  C   C7        1.0  0.3080695062351492  0.7805514491627652  0.5612245144125738  1.0000
  C   C8        1.0  0.6919304933165429  0.21944855103748037  0.4387754855801483  1.0000
  C   C9        1.0  0.34461816563823683  0.7512423800512488  0.5073193226098978  1.0000
  C   C10       1.0  0.6553818339134551  0.248757620148997  0.49268067738282434  1.0000
  C   C11       1.0  0.1724805160936163  0.7950762365175745  0.4611369294064836  1.0000
  C   C12       1.0  0.8275194834580759  0.20492376368267104  0.5388630705862385  1.0000
  C   C13       1.0  0.7666349229696194  0.9048360987606119  0.4264592895011458  1.0000
  C   C14       1.0  0.23336507658207256  0.09516390143963377  0.5735407104915763  1.0000
  C   C15       1.0  0.5984593015223986  0.924308329700278  0.3328058436664426  1.0000
  C   C16       1.0  0.40154070027705974  0.07569166979670375  0.6671941563263223  1.0000
  C   C17       1.0  0.5077016755883695  0.8700680328674577  0.2914272649398195  1.0000
  C   C18       1.0  0.4922983239633224  0.12993196733278797  0.7085727350529026  1.0000
  C   C19       1.0  0.3086831826440751  0.9118547267399152  0.2514461477031426  1.0000
  C   C20       1.0  0.691316818977754  0.08814527346578442  0.7485538522913286  1.0000
  C   C21       1.0  0.21002820640319397  0.006991077843857314  0.2525912280092108  1.0000
  C   C22       1.0  0.7899717953962642  0.9930089216531246  0.7474087719835542  1.0000
  C   C23       1.0  0.4916105301508547  0.020195536285714247  0.32986881167714166  1.0000
  C   C24       1.0  0.5083894694008373  0.9798044639145314  0.6701311883155804  1.0000
  C   C25       1.0  0.70991151596611  0.6326518767531699  0.5395405495618116  1.0000
  C   C26       1.0  0.290088483585582  0.3673481234470757  0.4604594504309104  1.0000
  C   C27       1.0  0.11371402761708238  0.6048546724374634  0.28269030270442136  1.0000
  C   C28       1.0  0.8862859719346097  0.39514532776278244  0.7173096972883007  1.0000
  C   C29       1.0  0.9611229280682501  0.5485310717539749  0.3220075651292219  1.0000
  C   C30       1.0  0.03887707166107119  0.4514689277375528  0.677992434861794  1.0000
  C   C31       1.0  0.9930532567459434  0.45004372969623574  0.32061370174364645  1.0000
  C   C32       1.0  0.006946742805748787  0.54995627050401  0.6793862982490757  1.0000
  C   C33       1.0  0.17267621007522257  0.4069814928221511  0.2835759377735274  1.0000
  C   C34       1.0  0.8273237896540986  0.5930185066693767  0.7164240622174884  1.0000
  C   C35       1.0  0.3197823297103995  0.4674880217753635  0.24569938581399572  1.0000
  C   C36       1.0  0.6802176698412925  0.5325119784248822  0.7543006141787264  1.0000
  C   C37       1.0  0.29345107772391293  0.5666856708982814  0.24362813107585818  1.0000
  C   C38       1.0  0.7065489218277792  0.4333143293019643  0.7563718689168638  1.0000
  C   C39       1.0  0.3346933063632226  0.3055552642996254  0.03537228203589527  1.0000
  C   C40       1.0  0.6653066954362357  0.6944447351973564  0.9646277179568695  1.0000
  C   C41       1.0  0.24830184408010894  0.4011931789628985  0.042648587983880486  1.0000
  C   C42       1.0  0.7516981554715833  0.5988068212373473  0.9573514120088417  1.0000
  C   C43       1.0  0.051094569531187246  0.42048127457149026  0.08283460289032402  1.0000
  C   C44       1.0  0.9489054300205049  0.5795187256287555  0.917165397102398  1.0000
  C   C45       1.0  0.928845249738878  0.3451683990955941  0.1157221683472068  1.0000
  C   C46       1.0  0.07115474999044316  0.6548316003959337  0.8842778316438091  1.0000
  C   C47       1.0  0.003122711081707801  0.2503709832945179  0.10815045622934748  1.0000
  C   C48       1.0  0.9968772884699844  0.7496290169057277  0.8918495437633746  1.0000
  C   C49       1.0  0.21263079545446142  0.22918117957530995  0.06854239012773694  1.0000
  C   C50       1.0  0.7873692042748598  0.7708188199162178  0.9314576098632791  1.0000
  C   C51       1.0  0.5456284305295268  0.28558510538192533  0.994709827090217  1.0000
  C   C52       1.0  0.45437156902216513  0.7144148948183203  0.0052901729025052  1.0000
  C   C53       1.0  0.8361881418661349  0.17402038511109827  0.9499726354345425  1.0000
  C   C54       1.0  0.16381185768555717  0.8259796150891473  0.05002736455817949  1.0000
  C   C55       1.0  0.8719528862594783  0.07829793233148172  0.9396360773211032  1.0000
  C   C56       1.0  0.12804711329221374  0.9217020678687641  0.06036392267161884  1.0000
  C   C57       1.0  0.06732454795895013  0.05116344193756307  0.9003193136844556  1.0000
  C   C58       1.0  0.9326754515927418  0.9488365582626826  0.09968068630826643  1.0000
  C   C59       1.0  0.2239591213795404  0.12102621266864351  0.872266318959295  1.0000
  C   C60       1.0  0.7760408781721517  0.8789737875316022  0.12773368103342728  1.0000
  C   C61       1.0  0.006897670622697211  0.23880143722860953  0.9200149803844458  1.0000
  C   C62       1.0  0.9931023289289949  0.7611985629716361  0.07998501960827617  1.0000
  C   C63       1.0  0.6786749760863438  0.18949647486486174  0.17705197698873174  1.0000
  C   C64       1.0  0.3213250234653483  0.8105035253353841  0.8229480230039904  1.0000
  N   N1        1.0  0.3028980197354398  0.060238203893066486  0.2908850360850093  1.0000
  N   N2        1.0  0.6971019798162523  0.9397617963071792  0.7091149639077128  1.0000
  N   N3        1.0  0.7912737674269948  0.8833338829017962  0.37460818893543746  1.0000
  N   N4        1.0  0.20872623419483446  0.11666611730390346  0.6253918110590339  1.0000
  N   N5        1.0  0.19460601262760896  0.21271977990578386  0.8822973980162576  1.0000
  N   N6        1.0  0.8053939891718493  0.7872802195911979  0.11770260197650738  1.0000
  N   N7        1.0  0.6351918904021944  0.19788523243418465  0.9893221376078674  1.0000
  N   N8        1.0  0.3648081091494977  0.802114767766061  0.010677862384854768  1.0000
  O   O1        1.0  0.21640782167631434  0.7681461328870861  0.4092005170887448  1.0000
  O   O2        1.0  0.7835921778753777  0.23185386731315966  0.5907994829039773  1.0000
  O   O3        1.0  0.5357615639423027  0.681566382356905  0.4941040717427516  1.0000
  O   O4        1.0  0.4642384356093895  0.3184336178433407  0.5058959282499704  1.0000
  O   O5        1.0  0.2913071539038712  0.13760530916591066  0.06371579524291862  1.0000
  O   O6        1.0  0.7086928456478209  0.8623946910343351  0.9362842047498033  1.0000
  O   O7        1.0  0.8916823038104966  0.17261141237281094  0.13638929001168043  1.0000
  O   O8        1.0  0.10831769574119542  0.8273885878274347  0.8636107099810417  1.0000
  F   F1        1.0  0.08615108467172158  0.7011854620575243  0.28271854381844663  1.0000
  F   F2        1.0  0.9138489150575996  0.29881453743400344  0.7172814561725692  1.0000
  F   F3        1.0  0.8433546676237524  0.39339121253358633  0.35762772584108715  1.0000
  F   F4        1.0  0.15664533192793956  0.6066087876666593  0.642372274151635  1.0000
  F   F5        1.0  0.4987499128908779  0.4276128875952615  0.20917855995677845  1.0000
  F   F6        1.0  0.5012500868384433  0.5723871118962661  0.7908214400342374  1.0000
  I   I1        1.0  0.7059472275862325  0.607550418437177  0.38186976973959885  1.0000
  I   I2        1.0  0.2940527719654594  0.3924495817630685  0.6181302302531233  1.0000
  I   I3        1.0  0.21932027591539272  0.25658140108690874  0.2865827632027947  1.0000
  I   I4        1.0  0.7806797238139284  0.7434185984046192  0.7134172367882213  1.0000
  I   I5        1.0  0.5188575840639896  0.6575779367350771  0.18544432740228328  1.0000
  I   I6        1.0  0.48114241566533167  0.34242206275645043  0.8145556725887325  1.0000
