data_image0
_chemical_formula_structural       H48C76N8O8F16I8
_chemical_formula_sum              "H48 C76 N8 O8 F16 I8"
_cell_length_a       19.489215229244305
_cell_length_b       6.9221126201293
_cell_length_c       15.30399608224204
_cell_angle_alpha    90.0
_cell_angle_beta     106.40471970388182
_cell_angle_gamma    90.0

_space_group_name_H-M_alt    "P 1"
_space_group_IT_number       1

loop_
  _space_group_symop_operation_xyz
  'x, y, z'

loop_
  _atom_site_type_symbol
  _atom_site_label
  _atom_site_symmetry_multiplicity
  _atom_site_fract_x
  _atom_site_fract_y
  _atom_site_fract_z
  _atom_site_occupancy
  H   H1        1.0  0.138580921697677  0.504026668080247  0.9168671378043426  1.0000
  H   H2        1.0  0.8614190779721199  0.004026668089586695  0.5831328620134304  1.0000
  H   H3        1.0  0.8614190780107354  0.4959733319010736  0.08313286215622649  1.0000
  H   H4        1.0  0.1385809217362926  0.9959733318917339  0.4168671379471387  1.0000
  H   H5        1.0  0.9944048929458783  0.6815150213363445  0.6608968457831261  1.0000
  H   H6        1.0  0.005595107235407068  0.18151502134568417  0.8391031540274884  1.0000
  H   H7        1.0  0.005595107274022706  0.31848497864497616  0.33910315417028447  1.0000
  H   H8        1.0  0.9944048929844937  0.8184849786356364  0.16089684592592218  1.0000
  H   H9        1.0  0.981132986198992  0.6438985169121307  0.5146333259766849  1.0000
  H   H10       1.0  0.018867013627249626  0.1438985169214704  0.9853666745222038  1.0000
  H   H11       1.0  0.01886701350942045  0.3561014830691899  0.48536667398388417  1.0000
  H   H12       1.0  0.981132986081163  0.8561014830598502  0.014633325438365277  1.0000
  H   H13       1.0  0.03190478847468747  0.7621901895467064  0.44932649085392534  1.0000
  H   H14       1.0  0.968095211783829  0.26219018955604606  0.05067350924228131  1.0000
  H   H15       1.0  0.9680952117452134  0.23780981043461424  0.5506735090994852  1.0000
  H   H16       1.0  0.03190478843607182  0.7378098104252746  0.9493264907111292  1.0000
  H   H17       1.0  0.01948360119529176  0.876188721975273  0.5495671623647813  1.0000
  H   H18       1.0  0.9805163989859934  0.3761887219846126  0.9504328374458331  1.0000
  H   H19       1.0  0.9805163990246092  0.12381127800604767  0.4504328375886292  1.0000
  H   H20       1.0  0.019483601233907417  0.623811277996708  0.04956716250757749  1.0000
  H   H21       1.0  0.016056945163491994  0.6074397601929594  0.8230888390112746  1.0000
  H   H22       1.0  0.9839430550177932  0.10743976020229905  0.6769111607993399  1.0000
  H   H23       1.0  0.983943055056409  0.3925602397883613  0.17691116094213605  1.0000
  H   H24       1.0  0.016056945202107598  0.8925602397790215  0.3230888391540706  1.0000
  H   H25       1.0  0.2670631120211905  0.48617234862860953  0.7176520435245447  1.0000
  H   H26       1.0  0.7329368881600947  0.9861723486192698  0.7823479562860697  1.0000
  H   H27       1.0  0.7329368881987104  0.5138276513527111  0.2823479564288658  1.0000
  H   H28       1.0  0.26706311205980615  0.013827651362050808  0.21765204366734084  1.0000
  H   H29       1.0  0.26017290478579524  0.4341453736625084  0.9293635161314392  1.0000
  H   H30       1.0  0.7398270950404465  0.9341453736531686  0.5706364843674495  1.0000
  H   H31       1.0  0.7398270950790621  0.5658546263188122  0.07063648451024564  1.0000
  H   H32       1.0  0.26017290466796605  0.06585462632815196  0.4293635155931195  1.0000
  H   H33       1.0  0.41609118893268027  0.41615061587168906  0.7565754807136549  1.0000
  H   H34       1.0  0.5839088114050498  0.9161506158623494  0.7434245197780751  1.0000
  H   H35       1.0  0.5839088112872206  0.5838493841096316  0.24342451923975555  1.0000
  H   H36       1.0  0.41609118881485097  0.0838493841189712  0.2565754801753354  1.0000
  H   H37       1.0  0.5666854582689484  0.21102933311892777  0.9864596824065682  1.0000
  H   H38       1.0  0.4333145419123369  0.7110293331095882  0.5135403174040462  1.0000
  H   H39       1.0  0.4333145419509524  0.7889706668623928  0.013540317546842312  1.0000
  H   H40       1.0  0.566685458307564  0.2889706668717326  0.48645968254936434  1.0000
  H   H41       1.0  0.4767068495184166  0.20719794067337916  0.07602557923180137  1.0000
  H   H42       1.0  0.5232931507400999  0.7071979406640394  0.4239744208644053  1.0000
  H   H43       1.0  0.5232931507014844  0.7928020593079415  0.9239744207216092  1.0000
  H   H44       1.0  0.4767068494798009  0.29280205931728115  0.5760255790890053  1.0000
  H   H45       1.0  0.35211266760987564  0.3122487986853392  0.0010120284142417666  1.0000
  H   H46       1.0  0.6478873326486408  0.8122487986759996  0.49898797168196485  1.0000
  H   H47       1.0  0.6478873326100253  0.6877512012959813  0.9989879715391689  1.0000
  H   H48       1.0  0.35211266757126003  0.18775120130532108  0.5010120282714456  1.0000
  C   C1        1.0  0.1271833704481238  0.5343307921983665  0.8442658150395266  1.0000
  C   C2        1.0  0.872816629221673  0.03433079220770624  0.6557341847782464  1.0000
  C   C3        1.0  0.8728166292602887  0.4656692077829541  0.15573418492104255  1.0000
  C   C4        1.0  0.12718337048673944  0.9656692077736144  0.3442658151823227  1.0000
  C   C5        1.0  0.04727604643488845  0.6330355298261744  0.6997980035171971  1.0000
  C   C6        1.0  0.9527239533913533  0.13303552983551406  0.8002019969816917  1.0000
  C   C7        1.0  0.9527239532735241  0.36696447015514627  0.300201996443372  1.0000
  C   C8        1.0  0.047276046317059256  0.8669644701458066  0.19979800297887745  1.0000
  C   C9        1.0  0.027181684475742107  0.7383005912296956  0.5179985897459305  1.0000
  C   C10       1.0  0.9728183157055432  0.2383005912390353  0.982001410064684  1.0000
  C   C11       1.0  0.9728183157441588  0.261699408751625  0.48200141020748005  1.0000
  C   C12       1.0  0.027181684514357745  0.7616994087422854  0.017998589888726622  1.0000
  C   C13       1.0  0.0601137117191626  0.5922619545481218  0.7929891112121181  1.0000
  C   C14       1.0  0.9398862884621229  0.09226195455746145  0.7070108885984965  1.0000
  C   C15       1.0  0.9398862885007382  0.40773804543319886  0.20701088874129245  1.0000
  C   C16       1.0  0.06011371175777822  0.9077380454238592  0.29298911135491423  1.0000
  C   C17       1.0  0.2530638972056759  0.4565122764415487  0.8563809792545496  1.0000
  C   C18       1.0  0.7469361026205659  0.9565122764322089  0.6436190212443392  1.0000
  C   C19       1.0  0.7469361025027367  0.5434877235397719  0.14361902070601953  1.0000
  C   C20       1.0  0.2530638972442915  0.04348772354911166  0.3563809793973456  1.0000
  C   C21       1.0  0.16989983065727612  0.5493212821967887  0.7080047556708531  1.0000
  C   C22       1.0  0.8301001690125206  0.04932128220612838  0.7919952441469199  1.0000
  C   C23       1.0  0.8301001690511363  0.45067871778453195  0.291995244289716  1.0000
  C   C24       1.0  0.1698998306958918  0.9506787177751922  0.20800475581364922  1.0000
  C   C25       1.0  0.1829918459448855  0.5129935447270532  0.8025631083043409  1.0000
  C   C26       1.0  0.8170081543928446  0.012993544736392908  0.6974368921873895  1.0000
  C   C27       1.0  0.8170081542750154  0.48700645525426745  0.19743689164906986  1.0000
  C   C28       1.0  0.18299184582705624  0.9870064552449277  0.3025631077660211  1.0000
  C   C29       1.0  0.10115435650013946  0.6124810217145537  0.6571004082293072  1.0000
  C   C30       1.0  0.8988456433261023  0.11248102172389332  0.8428995922695817  1.0000
  C   C31       1.0  0.898845643364718  0.387518978266767  0.34289959241237766  1.0000
  C   C32       1.0  0.10115435638231024  0.8875189782574273  0.1571004076909875  1.0000
  C   C33       1.0  0.3734718813139372  0.3735627231028348  0.8714136971012519  1.0000
  C   C34       1.0  0.626528118867348  0.873562723093495  0.6285863027093626  1.0000
  C   C35       1.0  0.6265281189059637  0.6264372768784858  0.12858630285215863  1.0000
  C   C36       1.0  0.3734718813525528  0.12643727688782555  0.37141369724404805  1.0000
  C   C37       1.0  0.4277450640500473  0.36978677037938545  0.8274244144373413  1.0000
  C   C38       1.0  0.5722549356197496  0.8697867703700457  0.6725755853804318  1.0000
  C   C39       1.0  0.5722549356583652  0.6302132296019352  0.17257558552322788  1.0000
  C   C40       1.0  0.4277450640886629  0.13021322961127485  0.32742441458013727  1.0000
  C   C41       1.0  0.5114407370570684  0.255468467077175  0.9558997219148913  1.0000
  C   C42       1.0  0.48855926261272853  0.7554684670678354  0.5441002779028818  1.0000
  C   C43       1.0  0.48855926265134425  0.7445315329041455  0.04410027804567789  1.0000
  C   C44       1.0  0.5114407370956839  0.24453153291348528  0.4558997220576873  1.0000
  C   C45       1.0  0.46117900179689914  0.2536541669221213  0.005149507315729933  1.0000
  C   C46       1.0  0.5388209983051725  0.7536541669127816  0.494850492099361  1.0000
  C   C47       1.0  0.5388209984230018  0.7463458330591993  0.9948504926376806  1.0000
  C   C48       1.0  0.4611790019147283  0.24634583306853902  0.5051495078540496  1.0000
  C   C49       1.0  0.39164554388627587  0.3135869378501173  0.9629540600267877  1.0000
  C   C50       1.0  0.6083544562950095  0.8135869378407776  0.5370459397838268  1.0000
  C   C51       1.0  0.6083544563336251  0.6864130621312033  0.03704593992662284  1.0000
  C   C52       1.0  0.3916455439248915  0.18641306214054296  0.46295406016958385  1.0000
  C   C53       1.0  0.29761211877929744  0.5446479256978018  0.22811128174210304  1.0000
  C   C54       1.0  0.702387881479219  0.04464792570714156  0.2718887183541036  1.0000
  C   C55       1.0  0.7023878814406035  0.45535207428351876  0.7718887182113076  1.0000
  C   C56       1.0  0.2976121187406817  0.955352074274179  0.7281112815993069  1.0000
  C   C57       1.0  0.23095702880166427  0.5169863994401688  0.3420552943279075  1.0000
  C   C58       1.0  0.7690429714568523  0.01698639944950847  0.15794470576829917  1.0000
  C   C59       1.0  0.7690429715746815  0.48301360054115183  0.6579447063066187  1.0000
  C   C60       1.0  0.2309570287630486  0.9830136005318122  0.8420552941851114  1.0000
  C   C61       1.0  0.2370270942123679  0.4808173981916275  0.1619805141272595  1.0000
  C   C62       1.0  0.7629729060461486  0.9808173981822879  0.33801948596894715  1.0000
  C   C63       1.0  0.762972906007533  0.5191826017896931  0.838019485826151  1.0000
  C   C64       1.0  0.23702709417375228  0.019182601799032806  0.6619805139844636  1.0000
  C   C65       1.0  0.2926630375991257  0.5615321424700244  0.3168687933229782  1.0000
  C   C66       1.0  0.707336962502946  0.061532142479364026  0.18313120609211272  1.0000
  C   C67       1.0  0.7073369626207752  0.4384678575112963  0.6831312066304324  1.0000
  C   C68       1.0  0.2926630377169549  0.9384678575019566  0.8168687938612978  1.0000
  C   C69       1.0  0.17134035878377157  0.45643128816083656  0.2730092041099109  1.0000
  C   C70       1.0  0.8286596409632565  0.9564312881514968  0.22699079599345434  1.0000
  C   C71       1.0  0.828659640924641  0.543568711820484  0.7269907958506583  1.0000
  C   C72       1.0  0.17134035874515594  0.04356871182982379  0.7730092039671148  1.0000
  C   C73       1.0  0.17394571817228466  0.4374322343723208  0.18341620576517448  1.0000
  C   C74       1.0  0.8260542814182987  0.9374322343629812  0.31658379365707495  1.0000
  C   C75       1.0  0.8260542815361279  0.5625677656089998  0.8165837941953946  1.0000
  C   C76       1.0  0.17394571829011382  0.0625677656183395  0.6834162063034941  1.0000
  N   N1        1.0  0.30554411051649316  0.4339192042708912  0.819929832128639  1.0000
  N   N2        1.0  0.6944558896647921  0.9339192042615516  0.6800701676819754  1.0000
  N   N3        1.0  0.6944558897034078  0.5660807957104294  0.18007016782477148  1.0000
  N   N4        1.0  0.3055441105551088  0.0660807957197691  0.31992983227143523  1.0000
  N   N5        1.0  0.49458841346833  0.3133068701733271  0.8686989339873169  1.0000
  N   N6        1.0  0.5054115868694001  0.8133068701639875  0.6313010665044133  1.0000
  N   N7        1.0  0.5054115867515708  0.6866931298079935  0.13130106596609362  1.0000
  N   N8        1.0  0.4945884133505008  0.1866931298173332  0.36869893344899723  1.0000
  O   O1        1.0  0.22176457868689556  0.5274861939376819  0.6664594166467873  1.0000
  O   O2        1.0  0.7782354214943897  0.02748619394702163  0.8335405831638273  1.0000
  O   O3        1.0  0.7782354215330054  0.4725138060436387  0.3335405833066233  1.0000
  O   O4        1.0  0.2217645787255112  0.972513806034299  0.16645941678958337  1.0000
  O   O5        1.0  0.0932822199665455  0.6509409666200768  0.5673804194473221  1.0000
  O   O6        1.0  0.9067177802147398  0.15094096662941656  0.9326195803632924  1.0000
  O   O7        1.0  0.9067177802533554  0.3490590333612437  0.4326195805060885  1.0000
  O   O8        1.0  0.0932822200051611  0.8490590333519041  0.06738041959011813  1.0000
  F   F1        1.0  0.11547218852982699  0.3765109371987243  0.11785401185243867  1.0000
  F   F2        1.0  0.8845278112172011  0.8765109371893846  0.38214598825092655  1.0000
  F   F3        1.0  0.8845278111785855  0.6234890627825964  0.8821459881081304  1.0000
  F   F4        1.0  0.11547218849121135  0.12348906279193603  0.6178540117096426  1.0000
  F   F5        1.0  0.1092908800994737  0.41381702482998506  0.29151124314725835  1.0000
  F   F6        1.0  0.8907091196475545  0.9138170248206454  0.20848875695610686  1.0000
  F   F7        1.0  0.8907091197653837  0.5861829751513356  0.7084887574944265  1.0000
  F   F8        1.0  0.10929088006085806  0.08618297516067522  0.7915112430044622  1.0000
  F   F9        1.0  0.35118562807736253  0.6242063914757991  0.382534591440224  1.0000
  F   F10       1.0  0.648814372181154  0.12420639148513883  0.11746540865598269  1.0000
  F   F11       1.0  0.6488143721425383  0.3757936085055215  0.6174654085131865  1.0000
  F   F12       1.0  0.35118562803874687  0.8757936084961818  0.8825345912974278  1.0000
  F   F13       1.0  0.2375620565193861  0.46001352401292195  0.07406305618269085  1.0000
  F   F14       1.0  0.762437943227642  0.9600135240035822  0.4259369439206744  1.0000
  F   F15       1.0  0.7624379431890265  0.5399864759683987  0.9259369437778783  1.0000
  F   F16       1.0  0.23756205648077044  0.03998647597773839  0.5740630560398948  1.0000
  I   I1        1.0  0.39267405113744036  0.6135688601265007  0.1923544463404029  1.0000
  I   I2        1.0  0.6073259486095877  0.11356886013584036  0.30764555376296226  1.0000
  I   I3        1.0  0.6073259485709721  0.38643113985481997  0.8076455536201662  1.0000
  I   I4        1.0  0.39267405125526955  0.8864311398454803  0.6923544468787225  1.0000
  I   I5        1.0  0.22584465976492624  0.5332150634571812  0.47657961355256717  1.0000
  I   I6        1.0  0.7741553399821018  0.0332150634665209  0.023420386550798065  1.0000
  I   I7        1.0  0.7741553399434863  0.4667849365241394  0.5234203864080019  1.0000
  I   I8        1.0  0.2258446597263106  0.9667849365147998  0.9765796134097711  1.0000
