data_image0
_chemical_formula_structural       H48C64N8O8F8I4
_chemical_formula_sum              "H48 C64 N8 O8 F8 I4"
_cell_length_a       16.54511497210786
_cell_length_b       4.655331513155661
_cell_length_c       18.97905977532692
_cell_angle_alpha    90.0
_cell_angle_beta     92.35253787444428
_cell_angle_gamma    90.0

_space_group_name_H-M_alt    "P 1"
_space_group_IT_number       1

loop_
  _space_group_symop_operation_xyz
  'x, y, z'

loop_
  _atom_site_type_symbol
  _atom_site_label
  _atom_site_symmetry_multiplicity
  _atom_site_fract_x
  _atom_site_fract_y
  _atom_site_fract_z
  _atom_site_occupancy
  H   H1        1.0  0.959102076468906  0.42933229230868947  0.4146683534951399  1.0000
  H   H2        1.0  0.5408979234746273  0.929332293043797  0.08533164666076908  1.0000
  H   H3        1.0  0.04089792404819005  0.5706677070134509  0.5853316464339169  1.0000
  H   H4        1.0  0.4591020764379877  0.07066770627834336  0.9146683532666795  1.0000
  H   H5        1.0  0.7671625336596996  0.22538230135382342  0.2971183919953229  1.0000
  H   H6        1.0  0.7328374668883146  0.7253822999408562  0.2028816081621942  1.0000
  H   H7        1.0  0.23283746685739648  0.7746177001163917  0.7028816079337339  1.0000
  H   H8        1.0  0.26716253362878134  0.2746176993812841  0.7971183917668625  1.0000
  H   H9        1.0  0.8492940635264258  0.15209802309439188  0.19321603288046138  1.0000
  H   H10       1.0  0.6507059364171075  0.6520980216814247  0.3067839672754476  1.0000
  H   H11       1.0  0.15070593638618932  0.8479019783758233  0.8067839670469873  1.0000
  H   H12       1.0  0.34929406349550757  0.3479019776407157  0.693216032652001  1.0000
  H   H13       1.0  0.9601104630949041  0.7881208072146418  0.1966915453115135  1.0000
  H   H14       1.0  0.5398895368486292  0.2881208064795343  0.30330845484439556  1.0000
  H   H15       1.0  0.039889536817710965  0.2118791921074985  0.8033084546159351  1.0000
  H   H16       1.0  0.4601104630869734  0.711879192842606  0.6966915456103916  1.0000
  H   H17       1.0  0.036448170675443356  0.427050706138084  0.25692170408235304  1.0000
  H   H18       1.0  0.4635518295716109  0.9270507068731916  0.24307829561850608  1.0000
  H   H19       1.0  0.9635518292371718  0.5729492931840564  0.7430782958450957  1.0000
  H   H20       1.0  0.5364481709454851  0.07294929459702361  0.7569217043105506  1.0000
  H   H21       1.0  0.07163025900879359  0.0066166544558542255  0.4732929254833433  1.0000
  H   H22       1.0  0.42836974126124816  0.5066166551909618  0.026707074744854245  1.0000
  H   H23       1.0  0.9283697409038215  0.9933833448662862  0.5267070744441054  1.0000
  H   H24       1.0  0.5716302586513669  0.49338334413117857  0.9732929251825945  1.0000
  H   H25       1.0  0.17461112422802236  0.6154803072354674  0.4753741327491504  1.0000
  H   H26       1.0  0.32538887601903194  0.11548030864843463  0.02462586695170872  1.0000
  H   H27       1.0  0.8253888762890736  0.3845196920866729  0.5246258671799063  1.0000
  H   H28       1.0  0.6746111238935832  0.8845196928217806  0.9753741329757399  1.0000
  H   H29       1.0  0.21922070692750686  0.7365795111067407  0.26419324334327493  1.0000
  H   H30       1.0  0.2807792933425349  0.23657951251970782  0.2358067568849227  1.0000
  H   H31       1.0  0.7807792935895892  0.26342048821539976  0.7358067565857818  1.0000
  H   H32       1.0  0.7192207065930677  0.7634204889505074  0.7641932435698644  1.0000
  H   H33       1.0  0.11451533282656444  0.10849519493352383  0.2508568716493524  1.0000
  H   H34       1.0  0.38548466742048987  0.6084951956686314  0.24914312805150673  1.0000
  H   H35       1.0  0.8854846670860506  0.8915048043886166  0.7491431282780964  1.0000
  H   H36       1.0  0.6145153324921253  0.391504803653509  0.7508568718759419  1.0000
  H   H37       1.0  0.7494608381995564  0.36786477722596034  0.41048384168326996  1.0000
  H   H38       1.0  0.7505391617209894  0.867864777961068  0.08951615794530055  1.0000
  H   H39       1.0  0.25053916231753964  0.63213522209618  0.5895161582457867  1.0000
  H   H40       1.0  0.24946083819162568  0.13213522136107253  0.9104838419821482  1.0000
  H   H41       1.0  0.6985242559806905  0.1417847919390332  0.47080527387716653  1.0000
  H   H42       1.0  0.8014757439628429  0.6417847926741407  0.029194726278742443  1.0000
  H   H43       1.0  0.30147574393192467  0.8582152073831072  0.5291947260502821  1.0000
  H   H44       1.0  0.19852425594977222  0.35821520664799966  0.9708052736487062  1.0000
  H   H45       1.0  0.6795446392187277  0.10131844073125382  0.3773348616110169  1.0000
  H   H46       1.0  0.8204553607018181  0.6013184414663614  0.12266513801755356  1.0000
  H   H47       1.0  0.32045536069388747  0.8986815585908865  0.6226651383164318  1.0000
  H   H48       1.0  0.1795446392107969  0.39868156000385374  0.877334861909895  1.0000
  C   C1        1.0  0.9406495437712085  0.6630476457535128  0.3044274879640181  1.0000
  C   C2        1.0  0.5593504561723248  0.16304764716648007  0.19557251219189095  1.0000
  C   C3        1.0  0.05935045614140673  0.3369523535686275  0.6955725119634306  1.0000
  C   C4        1.0  0.4406495437632776  0.8369523521556603  0.8044274882628962  1.0000
  C   C5        1.0  0.8953311575653539  0.709711100200551  0.3653172009884902  1.0000
  C   C6        1.0  0.6046688423781794  0.2097110994654434  0.13468279916741877  1.0000
  C   C7        1.0  0.10466884234726126  0.29028889912158945  0.6346827989389585  1.0000
  C   C8        1.0  0.39533115753443565  0.790288899856697  0.8653172007600299  1.0000
  C   C9        1.0  0.8313638079085313  0.9138241536565203  0.3619667445666623  1.0000
  C   C10       1.0  0.6686361920350021  0.41382415506948744  0.13803325558924673  1.0000
  C   C11       1.0  0.16863619200408386  0.08617584566562012  0.6380332553607863  1.0000
  C   C12       1.0  0.33136380787761305  0.5861758464007277  0.861966744338202  1.0000
  C   C13       1.0  0.8157649440194337  0.06793442295275379  0.2999933982588405  1.0000
  C   C14       1.0  0.6842350559240996  0.5679344236878613  0.20000660189706848  1.0000
  C   C15       1.0  0.18423505591616882  0.9320655763693867  0.7000066021959466  1.0000
  C   C16       1.0  0.3157649439885155  0.43206557563427905  0.7999933980303802  1.0000
  C   C17       1.0  0.862241111330664  0.02501420998073317  0.24050002655786828  1.0000
  C   C18       1.0  0.6377588886128693  0.5250142107158408  0.2594999735980407  1.0000
  C   C19       1.0  0.1377588885819512  0.9749857893414071  0.7594999733695804  1.0000
  C   C20       1.0  0.36224111129974573  0.4749857907543744  0.7405000263294079  1.0000
  C   C21       1.0  0.9236524060731497  0.8243337728269929  0.24235347453634232  1.0000
  C   C22       1.0  0.5763475938703837  0.32433377423996007  0.2576465256195667  1.0000
  C   C23       1.0  0.07634759383946549  0.1756662264951475  0.7576465253911063  1.0000
  C   C24       1.0  0.4236524060422314  0.675666227230255  0.742353474307882  1.0000
  C   C25       1.0  0.004079951519704348  0.45311979910322375  0.3056133971290169  1.0000
  C   C26       1.0  0.49592004814585644  0.9531197998383313  0.1943866030975726  1.0000
  C   C27       1.0  0.9959200483929107  0.5468802002189166  0.6943866027984318  1.0000
  C   C28       1.0  0.5040799517897461  0.04688020163188378  0.8056133973572145  1.0000
  C   C29       1.0  0.08334731034561023  0.0932221558816168  0.362045997906023  1.0000
  C   C30       1.0  0.41665268992443155  0.5932221566167244  0.1379540023221746  1.0000
  C   C31       1.0  0.916652689567005  0.9067778434405236  0.6379540020214256  1.0000
  C   C32       1.0  0.5833473099881835  0.40677784270541606  0.862045997605274  1.0000
  C   C33       1.0  0.10212894718760976  0.9491283440316955  0.42552094734593554  1.0000
  C   C34       1.0  0.39787105305944453  0.4491283432965879  0.07447905235492364  1.0000
  C   C35       1.0  0.8978710527250053  0.05087165529044489  0.5744790525815132  1.0000
  C   C36       1.0  0.6021289468531705  0.5508716560255524  0.9255209475725251  1.0000
  C   C37       1.0  0.16079186424900685  0.7352744547465586  0.42701382228998724  1.0000
  C   C38       1.0  0.33920813602103494  0.23527445401145097  0.07298617793821044  1.0000
  C   C39       1.0  0.8392081362680892  0.2647255467236566  0.5729861776390696  1.0000
  C   C40       1.0  0.6607918638915802  0.7647255453106895  0.9270138219892381  1.0000
  C   C41       1.0  0.18503903839448244  0.8002046448191238  0.3096269269100412  1.0000
  C   C42       1.0  0.314960961248091  0.300204646232091  0.1903730727892099  1.0000
  C   C43       1.0  0.8149609615181327  0.1997953545030166  0.6903730730174075  1.0000
  C   C44       1.0  0.6850390386645241  0.6997953552381242  0.8096269271382388  1.0000
  C   C45       1.0  0.12635575584763742  0.012351141876257913  0.3025564817932996  1.0000
  C   C46       1.0  0.37364424442240435  0.5123511426113655  0.19744351843489802  1.0000
  C   C47       1.0  0.8736442446924461  0.9876488574458824  0.6974435186630956  1.0000
  C   C48       1.0  0.6263557554902108  0.4876488588588497  0.8025564814925507  1.0000
  C   C49       1.0  0.7254096486258347  0.15107837927599013  0.41920172778891396  1.0000
  C   C50       1.0  0.7745903513176987  0.6510783800110977  0.08079827236699509  1.0000
  C   C51       1.0  0.27459035130976794  0.8489216200461502  0.5807982726658732  1.0000
  C   C52       1.0  0.2254096485949164  0.34892161931104265  0.9192017275604536  1.0000
  C   C53       1.0  0.06620268258607521  0.6424404366366329  0.03598240618405391  1.0000
  C   C54       1.0  0.43379731707948566  0.14244043590152536  0.4640175940425356  1.0000
  C   C55       1.0  0.9337973173265399  0.35755956483358226  0.9640175937433946  1.0000
  C   C56       1.0  0.566202682856117  0.857559563420615  0.5359824064122516  1.0000
  C   C57       1.0  0.018231837080279447  0.4445118278155171  0.06995929181753856  1.0000
  C   C58       1.0  0.48176816318976234  0.9445118285506247  0.43004070841065917  1.0000
  C   C59       1.0  0.9817681628553232  0.5554881715066232  0.9300407086372487  1.0000
  C   C60       1.0  0.5182318367228528  0.05548817077151572  0.5699592915167896  1.0000
  C   C61       1.0  0.04606006007919307  0.6953319545240653  0.965105697394826  1.0000
  C   C62       1.0  0.4539399398254913  0.19533195593703243  0.5348943028315009  1.0000
  C   C63       1.0  0.9539399398334221  0.30466804479807513  0.034894302532622656  1.0000
  C   C64       1.0  0.5460600601101112  0.8046680455331827  0.46510569762328635  1.0000
  N   N1        1.0  0.022449367570683255  0.30199079829806136  0.3620278341643477  1.0000
  N   N2        1.0  0.4775506326993585  0.8019907990331689  0.13797216606384996  1.0000
  N   N3        1.0  0.9775506323419318  0.698009201024079  0.637972165763101  1.0000
  N   N4        1.0  0.5224493678177375  0.19800920028897148  0.8620278338652068  1.0000
  N   N5        1.0  0.20249266854257206  0.6617026094263888  0.3705391000835822  1.0000
  N   N6        1.0  0.2975073311229887  0.16170260869128122  0.12946090014300737  1.0000
  N   N7        1.0  0.797507331370043  0.33829738989575164  0.6294608998438666  1.0000
  N   N8        1.0  0.7024926687896264  0.8382973906308592  0.8705390997844413  1.0000
  O   O1        1.0  0.9114443864107407  0.5655796461668575  0.4255149888994749  1.0000
  O   O2        1.0  0.5885556135098051  0.06557964757982462  0.0744850107290957  1.0000
  O   O3        1.0  0.08855561350187442  0.4344203531552829  0.5744850110279738  1.0000
  O   O4        1.0  0.4114443864028099  0.9344203538903905  0.925514989198353  1.0000
  O   O5        1.0  0.7889209105258471  0.941838177927715  0.42145869425793575  1.0000
  O   O6        1.0  0.7110790894176863  0.44183817934068204  0.07854130589797327  1.0000
  O   O7        1.0  0.211079089386768  0.05816182139442546  0.578541305669513  1.0000
  O   O8        1.0  0.2889209104949289  0.558161822129533  0.9214586940294753  1.0000
  F   F1        1.0  0.03337161947567507  0.3839518936404119  0.1394360244824771  1.0000
  F   F2        1.0  0.4666283807943667  0.8839518943755195  0.3605639757457205  1.0000
  F   F3        1.0  0.9666283804369401  0.6160481056817285  0.8605639754449715  1.0000
  F   F4        1.0  0.5333716191412359  0.1160481070946957  0.6394360247090666  1.0000
  F   F5        1.0  0.08980505671826083  0.8868125692731857  0.9281503397825176  1.0000
  F   F6        1.0  0.4101949431634361  0.38681257068615305  0.5718496599164706  1.0000
  F   F7        1.0  0.9101949431943542  0.11318743004895453  0.07184966014493098  1.0000
  F   F8        1.0  0.5898050567491789  0.6131874307840621  0.428150340010978  1.0000
  I   I1        1.0  0.1674077071737035  0.849997597124441  0.08682432347339514  1.0000
  I   I2        1.0  0.3325922930963382  0.3499975963893334  0.4131756767548025  1.0000
  I   I3        1.0  0.8325922927618989  0.1500024043457741  0.913175676981392  1.0000
  I   I4        1.0  0.6674077068162769  0.650002402932807  0.5868243231726462  1.0000
