data_image0
_chemical_formula_structural       H28C52N4O8F20
_chemical_formula_sum              "H28 C52 N4 O8 F20"
_cell_length_a       9.728578442116072
_cell_length_b       5.661770370392671
_cell_length_c       21.26360540201114
_cell_angle_alpha    90.0
_cell_angle_beta     93.46826606063242
_cell_angle_gamma    90.0

_space_group_name_H-M_alt    "P 1"
_space_group_IT_number       1

loop_
  _space_group_symop_operation_xyz
  'x, y, z'

loop_
  _atom_site_type_symbol
  _atom_site_label
  _atom_site_symmetry_multiplicity
  _atom_site_fract_x
  _atom_site_fract_y
  _atom_site_fract_z
  _atom_site_occupancy
  H   H1        1.0  0.6333972301366546  0.26863060147289525  0.4748004633704195  1.0000
  H   H2        1.0  0.3666027698756728  0.7686306023213338  0.025199536862395795  1.0000
  H   H3        1.0  0.36660277002756525  0.73136939845775  0.5251995367458047  1.0000
  H   H4        1.0  0.6333972302885471  0.23136939760931138  0.9748004632538283  1.0000
  H   H5        1.0  0.6862501194520549  0.6159696387965884  0.4313730483908049  1.0000
  H   H6        1.0  0.31374988056027253  0.1159696397143818  0.0686269518420102  1.0000
  H   H7        1.0  0.313749880712165  0.3840303611340568  0.5686269517254191  1.0000
  H   H8        1.0  0.6862501196039473  0.8840303602162635  0.931373048274214  1.0000
  H   H9        1.0  0.6431618801241499  0.9140160394108482  0.3466345098676166  1.0000
  H   H10       1.0  0.3568381198881776  0.4140160403286416  0.1533654903651986  1.0000
  H   H11       1.0  0.35683812004007  0.08598396051979702  0.6533654902486076  1.0000
  H   H12       1.0  0.6431618792462982  0.5859839596020037  0.8466345097183091  1.0000
  H   H13       1.0  0.4399195572003666  0.8727228511136715  0.2703158248583651  1.0000
  H   H14       1.0  0.5600804428211907  0.372722850265233  0.22968417490443735  1.0000
  H   H15       1.0  0.5600804429638533  0.12727714881697366  0.7296841752578591  1.0000
  H   H16       1.0  0.4399195573430292  0.6272771496654123  0.7703158252117867  1.0000
  H   H17       1.0  0.2838697137938627  0.5266418248949936  0.2781376615768907  1.0000
  H   H18       1.0  0.7161302862276946  0.02664182404655499  0.22186233818591178  1.0000
  H   H19       1.0  0.716130286379587  0.4733581750356516  0.7218623380693208  1.0000
  H   H20       1.0  0.2838697139365254  0.9733581758840902  0.7781376619303125  1.0000
  H   H21       1.0  0.32611317747846824  0.22821132887280768  0.3619174437514291  1.0000
  H   H22       1.0  0.6738868225338592  0.7282113297212464  0.1380825564813861  1.0000
  H   H23       1.0  0.6738868226857516  0.7717886710578375  0.638082556364795  1.0000
  H   H24       1.0  0.3261131776303607  0.2717886702093989  0.861917443634838  1.0000
  H   H25       1.0  0.7528364723068012  0.21121523512389676  0.5497968861342682  1.0000
  H   H26       1.0  0.2471635280093112  0.7112152359723354  0.9502031138653648  1.0000
  H   H27       1.0  0.24716352785741877  0.7887847648067484  0.4502031139819559  1.0000
  H   H28       1.0  0.7528364721549087  0.2887847639583099  0.049796886250859325  1.0000
  C   C1        1.0  0.46340730513375944  0.06744596213172029  0.47253310642176466  1.0000
  C   C2        1.0  0.5365926948877978  0.5674459612139269  0.02746689334103778  1.0000
  C   C3        1.0  0.536592694009946  0.932554037798925  0.5274668931917301  1.0000
  C   C4        1.0  0.46340730527642204  0.4325540387167184  0.9725331067751863  1.0000
  C   C5        1.0  0.5085313322502314  0.4044467896427925  0.4018647243138415  1.0000
  C   C6        1.0  0.4914686677620962  0.9044467887249992  0.09813527591897375  1.0000
  C   C7        1.0  0.4914686679139886  0.5955532102878528  0.5981352758023827  1.0000
  C   C8        1.0  0.5085313324021238  0.0955532112056461  0.9018647241972504  1.0000
  C   C9        1.0  0.5982249590528834  0.5976482475684228  0.39731209941556644  1.0000
  C   C10       1.0  0.401775040968674  0.09764824671998423  0.10268790034723597  1.0000
  C   C11       1.0  0.4017750411205664  0.4023517523622224  0.6026879002306449  1.0000
  C   C12       1.0  0.5982249581658018  0.902351753210661  0.8973120997362716  1.0000
  C   C13       1.0  0.5735433009769549  0.7644713803007546  0.34986011220729224  1.0000
  C   C14       1.0  0.42645669904460237  0.2644713794523161  0.15013988755551022  1.0000
  C   C15       1.0  0.42645669919649487  0.23552861962989058  0.6501398874389192  1.0000
  C   C16       1.0  0.5735433011196176  0.7355286204783291  0.8498601125607139  1.0000
  C   C17       1.0  0.45963869213916975  0.741066808703689  0.3070665007925613  1.0000
  C   C18       1.0  0.5403613078731577  0.24106680962148244  0.19293349944025387  1.0000
  C   C19       1.0  0.5403613080250502  0.2589331912269562  0.6929334993236628  1.0000
  C   C20       1.0  0.45963869229106225  0.7589331903091627  0.8070665006759703  1.0000
  C   C21       1.0  0.37206483622064834  0.547401769631475  0.3116261144506396  1.0000
  C   C22       1.0  0.6279351638009091  0.047401768783036445  0.18837388531216284  1.0000
  C   C23       1.0  0.6279351639528015  0.4525982302991702  0.6883738851955719  1.0000
  C   C24       1.0  0.3720648363633109  0.9525982311476089  0.8116261148040614  1.0000
  C   C25       1.0  0.3951026414704385  0.37768318566612846  0.3585281453590415  1.0000
  C   C26       1.0  0.6048973585511187  0.877683186514567  0.14147185440376092  1.0000
  C   C27       1.0  0.6048973586937814  0.6223168142645168  0.6414718547571826  1.0000
  C   C28       1.0  0.3951026416223309  0.12231681341607814  0.8585281452424504  1.0000
  C   C29       1.0  0.896472996002564  0.43526862249432463  0.5804262966580319  1.0000
  C   C30       1.0  0.10352700431354825  0.9352686233427633  0.919573703341601  1.0000
  C   C31       1.0  0.10352700416165586  0.5647313774363206  0.4195737034581922  1.0000
  C   C32       1.0  0.8964729958506715  0.06473137835411398  0.08042629677462299  1.0000
  C   C33       1.0  0.9667652962129856  0.646668508342572  0.5702726808206483  1.0000
  C   C34       1.0  0.03323470307338271  0.14666850926036543  0.9297273191462683  1.0000
  C   C35       1.0  0.03323470395123442  0.3533314915880732  0.42972731929557584  1.0000
  C   C36       1.0  0.9667652960610931  0.8533314924365119  0.07027268093723937  1.0000
  C   C37       1.0  0.07484012454633236  0.7212104452969543  0.6113733526628407  1.0000
  C   C38       1.0  0.9251598747400359  0.22121044621474767  0.8886266473040759  1.0000
  C   C39       1.0  0.9251598745881434  0.27878955463369093  0.388626647420667  1.0000
  C   C40       1.0  0.07484012542418408  0.7787895537158975  0.11137335281214822  1.0000
  C   C41       1.0  0.1135170033496054  0.5894111756016971  0.664860639968835  1.0000
  C   C42       1.0  0.8864829969665068  0.08941117651949047  0.835139360030798  1.0000
  C   C43       1.0  0.8864829968146145  0.41058882432894817  0.33513936014738915  1.0000
  C   C44       1.0  0.11351700319771299  0.9105888234111548  0.16486064008542606  1.0000
  C   C45       1.0  0.04442696152826094  0.37993111152100856  0.6762568577033838  1.0000
  C   C46       1.0  0.9555730387878515  0.8799311123694472  0.8237431422962492  1.0000
  C   C47       1.0  0.955573038635959  0.6200688884096366  0.32374314241284036  1.0000
  C   C48       1.0  0.04442696137636853  0.12006888756119802  0.17625685781997485  1.0000
  C   C49       1.0  0.9373601197241297  0.30571150307531036  0.6345262473850252  1.0000
  C   C50       1.0  0.06263988059198261  0.805711502157517  0.8654737526146079  1.0000
  C   C51       1.0  0.06263988044932  0.6942884968553349  0.3654737522611862  1.0000
  C   C52       1.0  0.9373601195722372  0.19428849777312826  0.1345262475016162  1.0000
  N   N1        1.0  0.5403226839817448  0.24383851864063708  0.45106570250631783  1.0000
  N   N2        1.0  0.45967731603058265  0.7438385177228437  0.048934297726497406  1.0000
  N   N3        1.0  0.45967731515273097  0.7561614812900083  0.5489342975771898  1.0000
  N   N4        1.0  0.5403226841336373  0.25616148220780155  0.9510657023897267  1.0000
  O   O1        1.0  0.34467452823273126  0.016837434894659713  0.4514705765880568  1.0000
  O   O2        1.0  0.6553254717795963  0.5168374357430983  0.0485294236447584  1.0000
  O   O3        1.0  0.6553254719314888  0.9831625650359855  0.5485294235281672  1.0000
  O   O4        1.0  0.34467452735487947  0.4831625641875469  0.9514705764387492  1.0000
  O   O5        1.0  0.7962851987451444  0.3655805047876654  0.5381703995631693  1.0000
  O   O6        1.0  0.203714801570968  0.865580505636104  0.9618296004364638  1.0000
  O   O7        1.0  0.20371480141907558  0.6344194951429798  0.4618296005530549  1.0000
  O   O8        1.0  0.7962851986024817  0.1344194942945412  0.03817039920974751  1.0000
  F   F1        1.0  0.9292755510522897  0.7788723952953533  0.5191964515597455  1.0000
  F   F2        1.0  0.07072444823407865  0.27887239621314686  0.9808035484071712  1.0000
  F   F3        1.0  0.07072444808218623  0.2211276046352918  0.4808035485237622  1.0000
  F   F4        1.0  0.9292755519301412  0.7211276037174984  0.019196451709052976  1.0000
  F   F5        1.0  0.14318069277944323  0.9234130683469245  0.5996977935364763  1.0000
  F   F6        1.0  0.8568193075366691  0.423413067498486  0.9003022064631568  1.0000
  F   F7        1.0  0.8568193073847767  0.07658693158372061  0.40030220657974785  1.0000
  F   F8        1.0  0.14318069262755082  0.5765869324321593  0.09969779365306734  1.0000
  F   F9        1.0  0.21622948883821236  0.6656761778451655  0.7053778689357021  1.0000
  F   F10       1.0  0.7837705104481559  0.16567617699672688  0.7946221310312145  1.0000
  F   F11       1.0  0.7837705102962634  0.3343238220854797  0.2946221311478055  1.0000
  F   F12       1.0  0.2162294886955497  0.8343238229339183  0.2053778685822804  1.0000
  F   F13       1.0  0.08190131042880157  0.24808515678154996  0.7275243542657309  1.0000
  F   F14       1.0  0.9180986888575667  0.7480851558637567  0.7724756457011857  1.0000
  F   F15       1.0  0.9180986887149041  0.7519148431490953  0.27247564534776386  1.0000
  F   F16       1.0  0.08190131130665329  0.25191484406688863  0.22752435441503852  1.0000
  F   F17       1.0  0.8719933934389794  0.09990481828050018  0.6459373067607724  1.0000
  F   F18       1.0  0.1280066068771329  0.5999048191289388  0.8540626932388607  1.0000
  F   F19       1.0  0.12800660673447026  0.9000951816501451  0.35406269288543896  1.0000
  F   F20       1.0  0.8719933932870871  0.4000951808017065  0.14593730687736348  1.0000
