data_image0
_chemical_formula_structural       H48C40N12O8
_chemical_formula_sum              "H48 C40 N12 O8"
_cell_length_a       3.8657074783147323
_cell_length_b       14.973080509716015
_cell_length_c       16.480576530354632
_cell_angle_alpha    90.0
_cell_angle_beta     94.15066121724824
_cell_angle_gamma    90.0

_space_group_name_H-M_alt    "P 1"
_space_group_IT_number       1

loop_
  _space_group_symop_operation_xyz
  'x, y, z'

loop_
  _atom_site_type_symbol
  _atom_site_label
  _atom_site_symmetry_multiplicity
  _atom_site_fract_x
  _atom_site_fract_y
  _atom_site_fract_z
  _atom_site_occupancy
  H   H1        1.0  0.9896739111749155  0.6089398834183475  0.25265078986520634  1.0000
  H   H2        1.0  0.5103260890164012  0.1089398830749316  0.2473492105001038  1.0000
  H   H3        1.0  0.010326089111453643  0.39106011660061896  0.7473492099467897  1.0000
  H   H4        1.0  0.4896739112468336  0.8910601169440348  0.75265078991825  1.0000
  H   H5        1.0  0.17612005683647208  0.6382384475792316  0.46001259382963655  1.0000
  H   H6        1.0  0.3238799419983713  0.1382384479036811  0.03998740635481845  1.0000
  H   H7        1.0  0.823879943449897  0.36176155243973473  0.5399874059823593  1.0000
  H   H8        1.0  0.6761200582648635  0.8617615521152853  0.9600125940635355  1.0000
  H   H9        1.0  0.6161378335008711  0.38817281695830774  0.39414618830753656  1.0000
  H   H10       1.0  0.8838621666904457  0.8881728173017235  0.10585381205777357  1.0000
  H   H11       1.0  0.3838621667623637  0.6118271823927933  0.6058538121108175  1.0000
  H   H12       1.0  0.1161378335727892  0.11182718271724282  0.8941461883605802  1.0000
  H   H13       1.0  0.14318924980574305  0.468183209557387  0.06496971086867344  1.0000
  H   H14       1.0  0.35681075164578274  0.9681832092329375  0.43503028875886746  1.0000
  H   H15       1.0  0.8568107504806262  0.5318167904615794  0.9350302889433225  1.0000
  H   H16       1.0  0.6431892486405864  0.0318167907860288  0.5649697110531284  1.0000
  H   H17       1.0  0.18118040263474253  0.4889340623827882  0.17322700608892047  1.0000
  H   H18       1.0  0.3188195962001008  0.988934062726204  0.3267729940955345  1.0000
  H   H19       1.0  0.8188195976516266  0.5110659369683129  0.8267729937230754  1.0000
  H   H20       1.0  0.6811804014695858  0.01106593729276238  0.6732270062733756  1.0000
  H   H21       1.0  0.3536283045928372  0.7890841021213534  0.07053000948394003  1.0000
  H   H22       1.0  0.14637169424200622  0.2890841017779377  0.42946999070051495  1.0000
  H   H23       1.0  0.6463716956935319  0.21091589789761284  0.9294699903280559  1.0000
  H   H24       1.0  0.8536283060212286  0.7109158982410286  0.5705300097178388  1.0000
  H   H25       1.0  0.6584351118109449  0.708838723809233  0.8917571850445676  1.0000
  H   H26       1.0  0.8415648899038156  0.20883872413368243  0.6082428150013272  1.0000
  H   H27       1.0  0.34156488847542416  0.29116127620973337  0.1082428147674283  1.0000
  H   H28       1.0  0.15843511035941915  0.791161275885284  0.3917571854170267  1.0000
  H   H29       1.0  0.26480591614772336  0.7498183819097715  0.9270489274126277  1.0000
  H   H30       1.0  0.23519408418742951  0.24981838156635577  0.5729510730587699  1.0000
  H   H31       1.0  0.7351940841155115  0.25018161810919476  0.07295107300572626  1.0000
  H   H32       1.0  0.7648059160758053  0.7501816184526106  0.4270489273595839  1.0000
  H   H33       1.0  0.31012654699070535  0.6340132909750881  0.9026189900546302  1.0000
  H   H34       1.0  0.1898734533675819  0.13401329129953748  0.5973810098104094  1.0000
  H   H35       1.0  0.6898734532725295  0.36598670904387826  0.09738101036372364  1.0000
  H   H36       1.0  0.8101265469187874  0.8659867087194288  0.4026189900015865  1.0000
  H   H37       1.0  0.5227412794918633  0.7213592602398192  0.28110367466043457  1.0000
  H   H38       1.0  0.9772587181059053  0.22135925989640343  0.21889632565543163  1.0000
  H   H39       1.0  0.47725871820095767  0.27864073977914716  0.7188963251021174  1.0000
  H   H40       1.0  0.02274127956378142  0.7786407401225629  0.7811036747134784  1.0000
  H   H41       1.0  0.405196509883135  0.8151645489436758  0.21679250829278815  1.0000
  H   H42       1.0  0.09480349154525647  0.31516454926812526  0.2832074919411107  1.0000
  H   H43       1.0  0.5948034903800998  0.18483545107529045  0.7832074921255657  1.0000
  H   H44       1.0  0.9051965087411127  0.6848354507508411  0.7167925078708851  1.0000
  H   H45       1.0  0.8441845609845925  0.7960547812633159  0.2502195806865959  1.0000
  H   H46       1.0  0.6558154392067242  0.29605478158776527  0.24978041967871425  1.0000
  H   H47       1.0  0.15581543927864236  0.20394521875565053  0.749780419731758  1.0000
  H   H48       1.0  0.3441845610565105  0.7039452184312012  0.7502195807396396  1.0000
  C   C1        1.0  0.2591958934018347  0.526669893672372  0.3312780082939456  1.0000
  C   C2        1.0  0.2408041054330087  0.026669893996821487  0.16872199189050938  1.0000
  C   C3        1.0  0.7408041068845346  0.4733301063465943  0.6687219915180503  1.0000
  C   C4        1.0  0.7591958922366779  0.9733301060221449  0.8312780084784007  1.0000
  C   C5        1.0  0.38440232252555373  0.5144429127327316  0.41853481830622785  1.0000
  C   C6        1.0  0.11559767630928962  0.014442913057181015  0.08146518187822716  1.0000
  C   C7        1.0  0.615597675144133  0.48555708728623476  0.5814651820626822  1.0000
  C   C8        1.0  0.8844023239770795  0.9855570869617853  0.9185348179337688  1.0000
  C   C9        1.0  0.32019784658564165  0.5782021945572375  0.47786084852206306  1.0000
  C   C10       1.0  0.17980215484274983  0.07820219421382167  0.022139151711835794  1.0000
  C   C11       1.0  0.6798021536775933  0.4217978054617289  0.5221391518962908  1.0000
  C   C12       1.0  0.8201978454436192  0.9217978058051447  0.9778608481001602  1.0000
  C   C13       1.0  0.5657307207772594  0.43638189855187826  0.44131095728012243  1.0000
  C   C14       1.0  0.9342692794140572  0.9363818982274288  0.05868904308518764  1.0000
  C   C15       1.0  0.4342692795091097  0.5636181014670881  0.5586890425318733  1.0000
  C   C16       1.0  0.06573072084917757  0.06361810179153751  0.9413109573331663  1.0000
  C   C17       1.0  0.8938481791497327  0.579174916235355  0.10363843672954194  1.0000
  C   C18       1.0  0.6061518210647183  0.07917491655980446  0.3963615630294102  1.0000
  C   C19       1.0  0.10615182113663654  0.4208250837836113  0.896361563082454  1.0000
  C   C20       1.0  0.3938481792216507  0.9208250834591618  0.6036384367825857  1.0000
  C   C21       1.0  0.5791877798723519  0.673168191639622  0.015102693245970753  1.0000
  C   C22       1.0  0.9208122203189649  0.17316819129620623  0.4848973071193393  1.0000
  C   C23       1.0  0.420812220390883  0.3268318083793443  0.984897307172383  1.0000
  C   C24       1.0  0.07918777994426991  0.8268318087227602  0.5151026932990145  1.0000
  C   C25       1.0  0.5117088877963585  0.7294473667534666  0.07992566401315067  1.0000
  C   C26       1.0  0.9882911124180926  0.22944736707791596  0.42007433574580144  1.0000
  C   C27       1.0  0.48829111249001067  0.2705526332654998  0.9200743357988451  1.0000
  C   C28       1.0  0.01170888786827661  0.7705526329410504  0.5799256640661945  1.0000
  C   C29       1.0  0.6480968885904688  0.7058571536526421  0.15760599763253205  1.0000
  C   C30       1.0  0.8519031090304341  0.2058571533092264  0.3423940020769761  1.0000
  C   C31       1.0  0.3519031091023523  0.2941428463663241  0.84239400213002  1.0000
  C   C32       1.0  0.14809688866238685  0.7941428467097399  0.6576059976855758  1.0000
  C   C33       1.0  0.44357974354199775  0.6929158173742282  0.9295626120056224  1.0000
  C   C34       1.0  0.05642025681628955  0.19291581703081254  0.5704373878594172  1.0000
  C   C35       1.0  0.5564202567443715  0.307084182644738  0.07043738780637343  1.0000
  C   C36       1.0  0.9435797434469452  0.8070841829881538  0.4295626125589367  1.0000
  C   C37       1.0  0.5987875299631275  0.7628066350533919  0.23042272090578708  1.0000
  C   C38       1.0  0.9012124702513236  0.2628066353778414  0.269577278853165  1.0000
  C   C39       1.0  0.4012124703232417  0.23719336496557442  0.7695772789062089  1.0000
  C   C40       1.0  0.09878753003504559  0.737193364641125  0.7304227209588308  1.0000
  N   N1        1.0  0.8361208744950986  0.6307908719165188  0.16950909449871554  1.0000
  N   N2        1.0  0.6638791257193525  0.1307908722409683  0.3304909052602366  1.0000
  N   N3        1.0  0.1638791257912706  0.36920912810244744  0.8304909053132804  1.0000
  N   N4        1.0  0.33612087456701667  0.8692091277779981  0.6695090945517593  1.0000
  N   N5        1.0  0.0820685429535963  0.5048451823320469  0.11537123816414305  1.0000
  N   N6        1.0  0.4179314559043814  0.004845181988631139  0.38462876141395397  1.0000
  N   N7        1.0  0.9179314573327729  0.4951548176869194  0.8846287616478529  1.0000
  N   N8        1.0  0.5820685443819879  0.9951548180303352  0.615371238398042  1.0000
  N   N9        1.0  0.7701557281642549  0.5991893327614358  0.026610350933231174  1.0000
  N   N10       1.0  0.7298442720270619  0.09918933241802012  0.47338964943207895  1.0000
  N   N11       1.0  0.22984427212211436  0.4008106672575304  0.9733896488787647  1.0000
  N   N12       1.0  0.2701557282361729  0.9008106676009462  0.526610350986275  1.0000
  O   O1        1.0  0.09006850038747545  0.6020029007491765  0.3159525463501359  1.0000
  O   O2        1.0  0.409931501040916  0.10200290040576074  0.18404745388376303  1.0000
  O   O3        1.0  0.9099314998757594  0.3979970992697898  0.684047454068218  1.0000
  O   O4        1.0  0.5900684992454531  0.8979970996132056  0.8159525459282329  1.0000
  O   O5        1.0  0.31325283869550835  0.46897469398120406  0.27945351376989996  1.0000
  O   O6        1.0  0.18674716016246934  0.9689746943246199  0.220546485808197  1.0000
  O   O7        1.0  0.6867471615908608  0.5310253060377622  0.7205464860420959  1.0000
  O   O8        1.0  0.8132528401238998  0.03102530569434644  0.779453514003799  1.0000
