data_image0
_chemical_formula_structural       H88C96N8O24P4
_chemical_formula_sum              "H88 C96 N8 O24 P4"
_cell_length_a       17.56710719045636
_cell_length_b       7.806983042751892
_cell_length_c       16.638395018726126
_cell_angle_alpha    90.0
_cell_angle_beta     103.67273774966736
_cell_angle_gamma    90.0

_space_group_name_H-M_alt    "P 1"
_space_group_IT_number       1

loop_
  _space_group_symop_operation_xyz
  'x, y, z'

loop_
  _atom_site_type_symbol
  _atom_site_label
  _atom_site_symmetry_multiplicity
  _atom_site_fract_x
  _atom_site_fract_y
  _atom_site_fract_z
  _atom_site_occupancy
  H   H1        1.0  0.5341230292013318  0.15924544387914716  0.3669510674390262  1.0000
  H   H2        1.0  0.034123028982212665  0.6592454437029016  0.36695106732770344  1.0000
  H   H3        1.0  0.46587697112958065  0.15924544387914716  0.13304893265016593  1.0000
  H   H4        1.0  0.9658769707829006  0.6592454437029016  0.13304893277616728  1.0000
  H   H5        1.0  0.4658769710222547  0.8407545557683617  0.6330489325167125  1.0000
  H   H6        1.0  0.9658769706755747  0.3407545559446073  0.6330489326427138  1.0000
  H   H7        1.0  0.5341230290940059  0.8407545557683617  0.8669510673055729  1.0000
  H   H8        1.0  0.03412302902683653  0.3407545559446073  0.8669510678126239  1.0000
  H   H9        1.0  0.4478986619814329  0.9472784620514805  0.4126085624449099  1.0000
  H   H10       1.0  0.9478986622005521  0.4472784609468215  0.41260856255623274  1.0000
  H   H11       1.0  0.5521013376317306  0.9472784620514805  0.08739143704058694  1.0000
  H   H12       1.0  0.052101338130360414  0.4472784609468215  0.08739143753295951  1.0000
  H   H13       1.0  0.5521013376763546  0.05272153887693293  0.5873914375255075  1.0000
  H   H14       1.0  0.052101338023034516  0.5527215387006874  0.5873914373995061  1.0000
  H   H15       1.0  0.4478986620260567  0.05272153887693293  0.9126085629298303  1.0000
  H   H16       1.0  0.9478986620932262  0.5527215387006874  0.9126085624227792  1.0000
  H   H17       1.0  0.3032131561309511  0.9675032158565487  0.36089561317535707  1.0000
  H   H18       1.0  0.8032131563500703  0.4675032160327944  0.3608956132866799  1.0000
  H   H19       1.0  0.6967868436341622  0.9675032158565487  0.13910438692851368  1.0000
  H   H20       1.0  0.19678684341504304  0.4675032160327944  0.13910438681719084  1.0000
  H   H21       1.0  0.6967868435268363  0.0324967837909601  0.6391043867950601  1.0000
  H   H22       1.0  0.19678684330771715  0.5324967836147145  0.6391043866837374  1.0000
  H   H23       1.0  0.3032131565894244  0.0324967837909601  0.8608956130272251  1.0000
  H   H24       1.0  0.8032131562427444  0.5324967836147145  0.8608956131532264  1.0000
  H   H25       1.0  0.2445318580832124  0.19882452818199747  0.26337424978940444  1.0000
  H   H26       1.0  0.7445318581503819  0.6988245280057519  0.26337424928235337  1.0000
  H   H27       1.0  0.7554681416819009  0.19882452818199747  0.2366257503144663  1.0000
  H   H28       1.0  0.25546814218053066  0.6988245280057519  0.23662575080683884  1.0000
  H   H29       1.0  0.7554681422923241  0.8011754714655115  0.7366257507847083  1.0000
  H   H30       1.0  0.2554681420732048  0.30117547164175695  0.7366257506733854  1.0000
  H   H31       1.0  0.24453185797588656  0.8011754714655115  0.763374249655951  1.0000
  H   H32       1.0  0.7445318581950058  0.30117547164175695  0.7633742497672737  1.0000
  H   H33       1.0  0.3297042151449016  0.4130645042189423  0.21800262929362943  1.0000
  H   H34       1.0  0.8297042153640208  0.9130645040426968  0.21800262940495227  1.0000
  H   H35       1.0  0.6702957846202118  0.4130645042189423  0.2819973708102413  1.0000
  H   H36       1.0  0.1702957849668917  0.9130645040426968  0.2819973706842399  1.0000
  H   H37       1.0  0.670295785078685  0.5869354954285666  0.7819973706621094  1.0000
  H   H38       1.0  0.17029578485956584  0.08693549560481213  0.7819973705507864  1.0000
  H   H39       1.0  0.3297042150375757  0.5869354954285666  0.718002629160176  1.0000
  H   H40       1.0  0.8297042152566949  0.08693549560481213  0.7180026292714987  1.0000
  H   H41       1.0  0.595792952185924  0.7324362136675545  0.23593826483326902  1.0000
  H   H42       1.0  0.09579295196680483  0.2324362138438001  0.2359382647219462  1.0000
  H   H43       1.0  0.40420704757918935  0.7324362136675545  0.2640617352706017  1.0000
  H   H44       1.0  0.9042070477983085  0.2324362138438001  0.2640617353819245  1.0000
  H   H45       1.0  0.4042070480376626  0.26756378597995434  0.7640617351224697  1.0000
  H   H46       1.0  0.9042070476909827  0.7675637858037088  0.7640617352484711  1.0000
  H   H47       1.0  0.5957929520785982  0.26756378597995434  0.7359382646998156  1.0000
  H   H48       1.0  0.0957929524252781  0.7675637858037088  0.7359382645738143  1.0000
  H   H49       1.0  0.6752290818491241  0.9290354046219875  0.34046386573863824  1.0000
  H   H50       1.0  0.175229081630005  0.42903540479823316  0.3404638656273154  1.0000
  H   H51       1.0  0.3247709184817883  0.9290354046219875  0.15953613435055394  1.0000
  H   H52       1.0  0.8247709179831586  0.42903540479823316  0.1595361338581814  1.0000
  H   H53       1.0  0.3247709183744624  0.07096459502552128  0.6595361342171006  1.0000
  H   H54       1.0  0.8247709185935815  0.5709645948492758  0.6595361343284233  1.0000
  H   H55       1.0  0.6752290817417983  0.07096459502552128  0.8404638656051848  1.0000
  H   H56       1.0  0.17522908167462894  0.5709645948492758  0.840463866112236  1.0000
  H   H57       1.0  0.6784988625387778  0.8914393116891995  0.4893532485824369  1.0000
  H   H58       1.0  0.1784988628854578  0.3914393105845406  0.48935324845643546  1.0000
  H   H59       1.0  0.32150113722633555  0.8914393116891995  0.010646751521433897  1.0000
  H   H60       1.0  0.8215011372935049  0.3914393105845406  0.010646751014382814  1.0000
  H   H61       1.0  0.3215011371190096  0.1085606892392138  0.5106467513879804  1.0000
  H   H62       1.0  0.8215011373381288  0.6085606890629682  0.5106467514993033  1.0000
  H   H63       1.0  0.678498862997251  0.1085606892392138  0.9893532484343048  1.0000
  H   H64       1.0  0.17849886293008171  0.6085606890629682  0.9893532489413559  1.0000
  H   H65       1.0  0.6028390952446921  0.6557771013417459  0.5348988911081912  1.0000
  H   H66       1.0  0.1028390955913722  0.15577710151799154  0.53489889098219  1.0000
  H   H67       1.0  0.3971609043057694  0.6557771013417459  0.9651011087287725  1.0000
  H   H68       1.0  0.8971609045248885  0.15577710151799154  0.9651011088400953  1.0000
  H   H69       1.0  0.3971609044130952  0.3442228995866674  0.46510110886222594  1.0000
  H   H70       1.0  0.8971609046322144  0.8442228994104218  0.4651011089735488  1.0000
  H   H71       1.0  0.6028390953520181  0.3442228995866674  0.03489889124164479  1.0000
  H   H72       1.0  0.10283909569869808  0.8442228994104218  0.034898891115643434  1.0000
  H   H73       1.0  0.5242844371453872  0.45746553315698046  0.4318599310648619  1.0000
  H   H74       1.0  0.024284437492067164  0.9574655329807349  0.43185993093886055  1.0000
  H   H75       1.0  0.47571556261972614  0.45746553315698046  0.06814006903900884  1.0000
  H   H76       1.0  0.9757155628388453  0.9574655329807349  0.06814006915033168  1.0000
  H   H77       1.0  0.47571556251240027  0.5425344664905285  0.5681400689055554  1.0000
  H   H78       1.0  0.9757155627315195  0.04253446666677397  0.5681400690168783  1.0000
  H   H79       1.0  0.5242844376038606  0.5425344664905285  0.9318599309167299  1.0000
  H   H80       1.0  0.02428443738474126  0.04253446666677397  0.9318599308054071  1.0000
  H   H81       1.0  0.2782920184735473  0.1973552474192258  0.0592726832049747  1.0000
  H   H82       1.0  0.7782920186926664  0.6973552472429803  0.05927268331629754  1.0000
  H   H83       1.0  0.7217079812915661  0.1973552474192258  0.44072731689889605  1.0000
  H   H84       1.0  0.22170798107244688  0.6973552472429803  0.44072731678757315  1.0000
  H   H85       1.0  0.7217079811842402  0.8026447522282831  0.9407273167654425  1.0000
  H   H86       1.0  0.221707980965121  0.3026447524045286  0.9407273166541198  1.0000
  H   H87       1.0  0.2782920189320205  0.8026447522282831  0.5592726830568427  1.0000
  H   H88       1.0  0.7782920185853406  0.3026447524045286  0.5592726831828442  1.0000
  C   C1        1.0  0.4368340133546901  0.30177003294342514  0.29018674045666554  1.0000
  C   C2        1.0  0.9368340135738094  0.8017700327671795  0.2901867405679884  1.0000
  C   C3        1.0  0.5631659864104234  0.30177003294342514  0.20981325964720518  1.0000
  C   C4        1.0  0.06316598619130406  0.8017700327671795  0.20981325953588234  1.0000
  C   C5        1.0  0.5631659863030973  0.6982299667040838  0.7098132595137517  1.0000
  C   C6        1.0  0.06316598608397815  0.1982299668803293  0.7098132594024288  1.0000
  C   C7        1.0  0.43683401381316345  0.6982299667040838  0.7901867403085336  1.0000
  C   C8        1.0  0.9368340134664834  0.1982299668803293  0.790186740434535  1.0000
  C   C9        1.0  0.4706666484315742  0.16976773264936126  0.3448438841436097  1.0000
  C   C10       1.0  0.9706666486506934  0.6697677324731156  0.3448438842549326  1.0000
  C   C11       1.0  0.5293333518993384  0.16976773264936126  0.15515611594558246  1.0000
  C   C12       1.0  0.02933335168021913  0.6697677324731156  0.1551561158342596  1.0000
  C   C13       1.0  0.5293333517920125  0.8302322682790522  0.6551561158121291  1.0000
  C   C14       1.0  0.02933335157289324  0.3302322684552977  0.6551561157008061  1.0000
  C   C15       1.0  0.47066664832424826  0.8302322682790522  0.8448438840101563  1.0000
  C   C16       1.0  0.9706666485433675  0.3302322684552977  0.8448438841214791  1.0000
  C   C17       1.0  0.4223748150914976  0.05078327541239924  0.3708008964061135  1.0000
  C   C18       1.0  0.9223748153106167  0.5507832752361537  0.37080089651743636  1.0000
  C   C19       1.0  0.577625184521666  0.05078327541239924  0.1291991030793833  1.0000
  C   C20       1.0  0.07762518502029574  0.5507832752361537  0.12919910357175585  1.0000
  C   C21       1.0  0.5776251845662899  0.9492167242351096  0.6291991035643038  1.0000
  C   C22       1.0  0.07762518491296987  0.4492167244113552  0.6291991034383024  1.0000
  C   C23       1.0  0.42237481513612146  0.9492167242351096  0.870800896891034  1.0000
  C   C24       1.0  0.9223748152032908  0.4492167244113552  0.8708008963839828  1.0000
  C   C25       1.0  0.34092692720066053  0.06216859026619824  0.34168990132029053  1.0000
  C   C26       1.0  0.8409269272678298  0.5621685913708572  0.34168990081323947  1.0000
  C   C27       1.0  0.6590730725644529  0.06216859026619824  0.1583100987835802  1.0000
  C   C28       1.0  0.15907307291113282  0.5621685913708572  0.15831009865757886  1.0000
  C   C29       1.0  0.6590730730229261  0.9378314093813106  0.6583100986354482  1.0000
  C   C30       1.0  0.15907307295575673  0.4378314095575562  0.6583100991424994  1.0000
  C   C31       1.0  0.34092692709333455  0.9378314093813106  0.8416899011868371  1.0000
  C   C32       1.0  0.8409269273124538  0.4378314095575562  0.8416899012981599  1.0000
  C   C33       1.0  0.30764562053371514  0.1926528829079972  0.2875129959492392  1.0000
  C   C34       1.0  0.8076456207528343  0.6926528827317516  0.28751299606056197  1.0000
  C   C35       1.0  0.6923543792313982  0.1926528829079972  0.21248700415463156  1.0000
  C   C36       1.0  0.19235437957807816  0.6926528827317516  0.21248700402863022  1.0000
  C   C37       1.0  0.6923543791240723  0.8073471180204163  0.7124870040211781  1.0000
  C   C38       1.0  0.1923543794707523  0.3073471181966618  0.7124870038951767  1.0000
  C   C39       1.0  0.3076456204263892  0.8073471180204163  0.7875129958157857  1.0000
  C   C40       1.0  0.8076456206455085  0.3073471181966618  0.7875129959271086  1.0000
  C   C41       1.0  0.3554017929156978  0.31314451390664994  0.26161145787789636  1.0000
  C   C42       1.0  0.855401793134817  0.8131445137304044  0.26161145798921925  1.0000
  C   C43       1.0  0.6445982068494156  0.31314451390664994  0.23838854222597433  1.0000
  C   C44       1.0  0.14459820663029635  0.8131445137304044  0.2383885421146515  1.0000
  C   C45       1.0  0.6445982067420897  0.6868554870217636  0.7383885420925208  1.0000
  C   C46       1.0  0.14459820708876964  0.18685548591710452  0.7383885419665195  1.0000
  C   C47       1.0  0.355401793374171  0.6868554870217636  0.7616114577297644  1.0000
  C   C48       1.0  0.8554017930274912  0.18685548591710452  0.7616114578557657  1.0000
  C   C49       1.0  0.5563284855375322  0.5806307283078415  0.3279633774312565  1.0000
  C   C50       1.0  0.05632848531841305  0.0806307284840871  0.32796337731993364  1.0000
  C   C51       1.0  0.44367151479338024  0.5806307283078415  0.17203662265793576  1.0000
  C   C52       1.0  0.9436715150124995  0.0806307284840871  0.17203662276925857  1.0000
  C   C53       1.0  0.4436715146860544  0.41936927133966734  0.6720366225244824  1.0000
  C   C54       1.0  0.9436715149051735  0.9193692724443263  0.6720366226358051  1.0000
  C   C55       1.0  0.5563284854302064  0.41936927133966734  0.827963377297803  1.0000
  C   C56       1.0  0.056328485211087145  0.9193692724443263  0.8279633771864802  1.0000
  C   C57       1.0  0.598031535702414  0.7150732375655572  0.3015824969510905  1.0000
  C   C58       1.0  0.09803153548329477  0.2150732377418027  0.3015824968397677  1.0000
  C   C59       1.0  0.40196846406269937  0.7150732375655572  0.1984175031527802  1.0000
  C   C60       1.0  0.9019684642818185  0.2150732377418027  0.19841750326410304  1.0000
  C   C61       1.0  0.4019684645211727  0.2849267620819517  0.6984175030046482  1.0000
  C   C62       1.0  0.9019684641744927  0.7849267619057061  0.6984175031306495  1.0000
  C   C63       1.0  0.598031535595088  0.2849267620819517  0.8015824968176372  1.0000
  C   C64       1.0  0.09803153594176803  0.7849267619057061  0.8015824966916357  1.0000
  C   C65       1.0  0.6421253331802809  0.8257779663022744  0.3600702353972188  1.0000
  C   C66       1.0  0.14212533311311137  0.3257779651976154  0.3600702359042699  1.0000
  C   C67       1.0  0.3578746669986819  0.8257779663022744  0.13992976407359953  1.0000
  C   C68       1.0  0.8578746666520021  0.3257779651976154  0.13992976419960088  1.0000
  C   C69       1.0  0.35787466704330584  0.17422203462613897  0.63992976455852  1.0000
  C   C70       1.0  0.857874666544676  0.6742220344498934  0.6399297640661473  1.0000
  C   C71       1.0  0.6421253332249047  0.17422203462613897  0.8600702358821393  1.0000
  C   C72       1.0  0.14212533300578545  0.6742220344498934  0.8600702357708163  1.0000
  C   C73       1.0  0.6442038658927265  0.8037470512793857  0.4439931067959782  1.0000
  C   C74       1.0  0.14420386567360732  0.30374705017472675  0.4439931066846553  1.0000
  C   C75       1.0  0.355796134438186  0.8037470512793857  0.05600689329321404  1.0000
  C   C76       1.0  0.8557961345053554  0.30374705017472675  0.056006892786162964  1.0000
  C   C77       1.0  0.3557961343308601  0.19625294964902767  0.5560068931597606  1.0000
  C   C78       1.0  0.8557961345499793  0.696252949472782  0.5560068932710834  1.0000
  C   C79       1.0  0.6442038657854006  0.19625294964902767  0.9439931066625247  1.0000
  C   C80       1.0  0.1442038657182312  0.696252949472782  0.9439931071695759  1.0000
  C   C81       1.0  0.6018075123083472  0.6719208702355458  0.46967284585633506  1.0000
  C   C82       1.0  0.10180751208922796  0.17192087041179127  0.4696728457450123  1.0000
  C   C83       1.0  0.3981924880225654  0.6719208702355458  0.03032715423285712  1.0000
  C   C84       1.0  0.8981924875239357  0.17192087041179127  0.030327153740484555  1.0000
  C   C85       1.0  0.3981924879152394  0.32807912941196316  0.5303271540994036  1.0000
  C   C86       1.0  0.8981924881343587  0.8280791292357176  0.5303271542107265  1.0000
  C   C87       1.0  0.6018075122010212  0.32807912941196316  0.9696728457228816  1.0000
  C   C88       1.0  0.10180751213385181  0.8280791292357176  0.9696728462299327  1.0000
  C   C89       1.0  0.5577309825060068  0.5594126074162135  0.41181728093699543  1.0000
  C   C90       1.0  0.057730982286887736  0.05941260759245903  0.41181728082567254  1.0000
  C   C91       1.0  0.4422690172591064  0.5594126074162135  0.08818271916687534  1.0000
  C   C92       1.0  0.9422690174782256  0.05941260759245903  0.08818271927819817  1.0000
  C   C93       1.0  0.4422690171517806  0.4405873922312954  0.5881827190334219  1.0000
  C   C94       1.0  0.9422690173708999  0.9405873920550498  0.5881827191447447  1.0000
  C   C95       1.0  0.5577309823986811  0.4405873922312954  0.911817280803542  1.0000
  C   C96       1.0  0.057730982745361044  0.9405873920550498  0.9118172806775406  1.0000
  N   N1        1.0  0.16640294307523257  0.1886365862376579  0.05496679231196594  1.0000
  N   N2        1.0  0.6664029432943519  0.6886365860614123  0.054966792423288766  1.0000
  N   N3        1.0  0.8335970566898808  0.1886365862376579  0.44503320779190475  1.0000
  N   N4        1.0  0.33359705647076165  0.6886365860614123  0.44503320768058197  1.0000
  N   N5        1.0  0.8335970565825549  0.811363413409851  0.9450332076584513  1.0000
  N   N6        1.0  0.3335970569292349  0.3113634135860966  0.94503320753245  1.0000
  N   N7        1.0  0.16640294353370585  0.811363413409851  0.554966792163834  1.0000
  N   N8        1.0  0.666402943187026  0.3113634135860966  0.5549667922898353  1.0000
  O   O1        1.0  0.24320781980745057  0.15887323607696707  0.09751175844445865  1.0000
  O   O2        1.0  0.7432078194607706  0.6588732359007216  0.09751175857046002  1.0000
  O   O3        1.0  0.7567921805234621  0.15887323607696707  0.40248824164473357  1.0000
  O   O4        1.0  0.2567921803043427  0.6588732359007216  0.4024882415334107  1.0000
  O   O5        1.0  0.7567921804161362  0.8411267648514464  0.9024882415112802  1.0000
  O   O6        1.0  0.25679218019701683  0.3411267650276919  0.9024882413999572  1.0000
  O   O7        1.0  0.24320781970012467  0.8411267648514464  0.5975117583110052  1.0000
  O   O8        1.0  0.7432078193534448  0.3411267650276919  0.5975117584370065  1.0000
  O   O9        1.0  0.11485803348229429  0.15623631476084962  0.09273857964492459  1.0000
  O   O10       1.0  0.6148580337014136  0.6562363145846041  0.09273857975624744  1.0000
  O   O11       1.0  0.8851419662828192  0.15623631476084962  0.4072614204589461  1.0000
  O   O12       1.0  0.3851419660636999  0.6562363145846041  0.4072614203476233  1.0000
  O   O13       1.0  0.8851419661754932  0.8437636848866593  0.9072614203254927  1.0000
  O   O14       1.0  0.38514196652217314  0.34376368506290483  0.9072614201994914  1.0000
  O   O15       1.0  0.11485803394076759  0.8437636848866593  0.5927385794967927  1.0000
  O   O16       1.0  0.6148580335940876  0.34376368506290483  0.592738579622794  1.0000
  O   O17       1.0  0.15574020234764746  0.2684851777596737  0.9857843891311169  1.0000
  O   O18       1.0  0.6557402025667666  0.7684851775834282  0.9857843892424396  1.0000
  O   O19       1.0  0.8442597972028141  0.2684851777596737  0.5142156107058469  1.0000
  O   O20       1.0  0.34425979754949404  0.7684851775834282  0.5142156105798456  1.0000
  O   O21       1.0  0.8442597973101399  0.7315148218878351  0.01421561083930039  1.0000
  O   O22       1.0  0.34425979765681997  0.23151482206408075  0.014215610713299033  1.0000
  O   O23       1.0  0.15574020245497336  0.7315148218878351  0.48578438926457035  1.0000
  O   O24       1.0  0.6557402026740926  0.23151482206408075  0.4857843893758932  1.0000
  P   P1        1.0  0.49999999988255667  0.4424625199111987  0.25000000005193534  1.0000
  P   P2        1.0  2.2923663626152972e-10  0.9424625210158577  0.24999999992593402  1.0000
  P   P3        1.0  0.4999999997752308  0.5575374797363101  0.749999999918482  1.0000
  P   P4        1.0  1.2191073280730698e-10  0.05753747991255571  0.7499999997924806  1.0000
