data_image0
_chemical_formula_structural       H36C28N4O4
_chemical_formula_sum              "H36 C28 N4 O4"
_cell_length_a       8.12585776037663
_cell_length_b       5.1507380993758245
_cell_length_c       14.46598781568973
_cell_angle_alpha    90.0
_cell_angle_beta     100.82896431170192
_cell_angle_gamma    90.0

_space_group_name_H-M_alt    "P 1"
_space_group_IT_number       1

loop_
  _space_group_symop_operation_xyz
  'x, y, z'

loop_
  _atom_site_type_symbol
  _atom_site_label
  _atom_site_symmetry_multiplicity
  _atom_site_fract_x
  _atom_site_fract_y
  _atom_site_fract_z
  _atom_site_occupancy
  H   H1        1.0  0.09987969747427548  0.18556665113992615  0.6447406915148457  1.0000
  H   H2        1.0  0.4001203019862833  0.6855666512005171  0.35525930857685856  1.0000
  H   H3        1.0  0.9001203014451296  0.8144333489812554  0.3552593080573215  1.0000
  H   H4        1.0  0.5998796981953755  0.31443334892066466  0.6447406918146265  1.0000
  H   H5        1.0  0.8885900296340966  0.662619924397552  0.7443297063133705  1.0000
  H   H6        1.0  0.6114099712686623  0.1626199243369612  0.25567029437789546  1.0000
  H   H7        1.0  0.11140997054756227  0.33738007572362966  0.2556702940781146  1.0000
  H   H8        1.0  0.38859002891299654  0.8373800757842206  0.7443297060135896  1.0000
  H   H9        1.0  0.8620451049944883  0.6523868803205513  0.9092312692508346  1.0000
  H   H10       1.0  0.6379548946460166  0.15238688025996042  0.09076873062111321  1.0000
  H   H11       1.0  0.13795489517783324  0.3476131198006304  0.09076873044840744  1.0000
  H   H12       1.0  0.3620451055356421  0.8476131198612212  0.9092312697703719  1.0000
  H   H13       1.0  0.16693518640016616  0.34420455394826693  0.9599086235831285  1.0000
  H   H14       1.0  0.33306481430397195  0.8442045540088579  0.040091375943408086  1.0000
  H   H15       1.0  0.8330648137721554  0.6557954461729147  0.04009137611611386  1.0000
  H   H16       1.0  0.6669351858683495  0.1557954461123239  0.9599086237558341  1.0000
  H   H17       1.0  0.194853850552646  0.34997934377957374  0.7963128003788055  1.0000
  H   H18       1.0  0.3051461488985755  0.8499793438401645  0.2036871990206559  1.0000
  H   H19       1.0  0.8051461496196756  0.6500206563416079  0.2036871993204368  1.0000
  H   H20       1.0  0.694853851273746  0.1500206562810171  0.7963128006785862  1.0000
  H   H21       1.0  0.2916650924274466  0.4554048865897981  0.621027217657018  1.0000
  H   H22       1.0  0.20833490703311214  0.955404886650389  0.37897278243468635  1.0000
  H   H23       1.0  0.7083349077448748  0.5445951135313836  0.3789727820422243  1.0000
  H   H24       1.0  0.7916650931485466  0.044595113470792695  0.6210272179567988  1.0000
  H   H25       1.0  0.13016083556294664  0.6073651833276288  0.6476436393326865  1.0000
  H   H26       1.0  0.3698391638976122  0.10736518326703792  0.3523563607590177  1.0000
  H   H27       1.0  0.8698391646187121  0.39263481679355294  0.3523563610587986  1.0000
  H   H28       1.0  0.6301608350217928  0.8926348168541438  0.6476436388131495  1.0000
  H   H29       1.0  0.13403349342371385  0.6953423084031424  0.48630251327539026  1.0000
  H   H30       1.0  0.3659665072897615  0.1953423102840208  0.5136974869433891  1.0000
  H   H31       1.0  0.8659665067579448  0.30465768977657004  0.5136974871160949  1.0000
  H   H32       1.0  0.63403349288256  0.8046576898371609  0.4863025127558531  1.0000
  H   H33       1.0  0.14220319739225487  0.3570236099216237  0.4660999418419941  1.0000
  H   H34       1.0  0.35779680205896663  0.8570236099822146  0.5339000575574673  1.0000
  H   H35       1.0  0.8577968015271501  0.642976390199558  0.533900057730173  1.0000
  H   H36       1.0  0.6422031981133549  0.14297639013896712  0.4660999421417749  1.0000
  C   C1        1.0  0.04029107557935959  0.009546944350744404  0.7574286744926131  1.0000
  C   C2        1.0  0.45970892388119916  0.5095469444113353  0.24257132559909117  1.0000
  C   C3        1.0  0.9597089233493825  0.9904530557704373  0.24257132577179696  1.0000
  C   C4        1.0  0.5402910762911223  0.49045305570984643  0.757428674100151  1.0000
  C   C5        1.0  0.9488687296928487  0.8132672093165872  0.791952423370098  1.0000
  C   C6        1.0  0.5511312699476562  0.31326720925599644  0.20804757650185013  1.0000
  C   C7        1.0  0.05113126922655614  0.1867327908045944  0.20804757620206926  1.0000
  C   C8        1.0  0.4488687302246654  0.6867327908651852  0.7919524231973921  1.0000
  C   C9        1.0  0.9345012978463443  0.8092769113042518  0.8863023961405152  1.0000
  C   C10       1.0  0.5654987030470774  0.30927691124366097  0.11369760385850788  1.0000
  C   C11       1.0  0.06549870232597732  0.19072308881692987  0.11369760355872705  1.0000
  C   C12       1.0  0.4345012971252442  0.6907230888775207  0.8863023958407343  1.0000
  C   C13       1.0  0.00946431952070988  0.0004952513505412212  0.9500980099850883  1.0000
  C   C14       1.0  0.49053568119276547  0.500495251411132  0.049901990233691074  1.0000
  C   C15       1.0  0.9905356806609489  0.9995047487706404  0.049901990406396854  1.0000
  C   C16       1.0  0.509464318979556  0.4995047487100496  0.9500980094655511  1.0000
  C   C17       1.0  0.10322990138244426  0.1929265982520874  0.9141769041709106  1.0000
  C   C18       1.0  0.39677009933103113  0.6929265983126782  0.08582309604786882  1.0000
  C   C19       1.0  0.8967700987992145  0.8070734018690943  0.08582309622057462  1.0000
  C   C20       1.0  0.6032299008412905  0.30707340180850345  0.9141769036513735  1.0000
  C   C21       1.0  0.11936492361845906  0.19837785581134915  0.8201599665394512  1.0000
  C   C22       1.0  0.38063507708567906  0.69837785587194  0.17984003298708523  1.0000
  C   C23       1.0  0.8806350765538624  0.8016221443098325  0.179840033159791  1.0000
  C   C24       1.0  0.6193649230866425  0.30162214424924166  0.8201599667121571  1.0000
  C   C25       1.0  0.09500309949085191  0.5051676963181866  0.5092430435474706  1.0000
  C   C26       1.0  0.40499690122262344  0.0051676962575956924  0.4907569566713087  1.0000
  C   C27       1.0  0.904996900690807  0.4948323038029952  0.4907569568440145  1.0000
  C   C28       1.0  0.595003098949698  0.994832303863586  0.5092430430279336  1.0000
  N   N1        1.0  0.16282843240632813  0.4546270835016378  0.6091537065307133  1.0000
  N   N2        1.0  0.33717156830714723  0.9546270835622285  0.390846293688066  1.0000
  N   N3        1.0  0.8371715677753306  0.5453729146780746  0.39084629386077174  1.0000
  N   N4        1.0  0.6628284318651744  0.04537291461748378  0.6091537060111762  1.0000
  O   O1        1.0  0.048457664415499285  0.009707167989391457  0.6635612732045442  1.0000
  O   O2        1.0  0.45154233504505953  0.5097071680499823  0.33643872688716014  1.0000
  O   O3        1.0  0.9515423345132428  0.9902928321317902  0.33643872705986594  1.0000
  O   O4        1.0  0.548457665127262  0.49029283207119934  0.6635612728120821  1.0000
