data_image0
_chemical_formula_structural       H48C42N2O10S2
_chemical_formula_sum              "H48 C42 N2 O10 S2"
_cell_length_a       8.114655449269852
_cell_length_b       9.540684599250156
_cell_length_c       13.709042515853552
_cell_angle_alpha    73.48299405135667
_cell_angle_beta     84.58462089474347
_cell_angle_gamma    66.2627643378188

_space_group_name_H-M_alt    "P 1"
_space_group_IT_number       1

loop_
  _space_group_symop_operation_xyz
  'x, y, z'

loop_
  _atom_site_type_symbol
  _atom_site_label
  _atom_site_symmetry_multiplicity
  _atom_site_fract_x
  _atom_site_fract_y
  _atom_site_fract_z
  _atom_site_occupancy
  H   H1        1.0  0.3476962799890607  0.05539906027337242  0.7865638499230347  1.0000
  H   H2        1.0  0.6523037197823077  0.9446009399423648  0.21343615005581815  1.0000
  H   H3        1.0  0.41500429614989276  0.21482786935724105  0.6238232391376638  1.0000
  H   H4        1.0  0.5849957036214755  0.7851721308584961  0.376176760841189  1.0000
  H   H5        1.0  0.9222547823071209  0.6098988178902283  0.6559842434241918  1.0000
  H   H6        1.0  0.07774521869997908  0.3901011823302349  0.34401575648105853  1.0000
  H   H7        1.0  0.8743919406773557  0.4357051488470164  0.815750526273416  1.0000
  H   H8        1.0  0.12560805909401274  0.5642948513687208  0.18424947370543673  1.0000
  H   H9        1.0  0.01251067427777434  0.7529536556711682  0.5490150958128599  1.0000
  H   H10       1.0  0.9874893254935939  0.24704634454456903  0.45098490416599313  1.0000
  H   H11       1.0  0.054342119966265146  0.9178572666135916  0.3821778648908483  1.0000
  H   H12       1.0  0.9456578810408349  0.08214273360687155  0.6178221350144022  1.0000
  H   H13       1.0  0.21298538305431125  0.9430109012734014  0.21992327343442225  1.0000
  H   H14       1.0  0.7870146167170572  0.056989098942335746  0.7800767265444306  1.0000
  H   H15       1.0  0.4267692698585205  0.8138365678092844  0.09775203466020434  1.0000
  H   H16       1.0  0.5732307311485795  0.18616343241117883  0.9022479652450461  1.0000
  H   H17       1.0  0.601352253660172  0.5197687600563957  0.14675741854265073  1.0000
  H   H18       1.0  0.3986477461111963  0.4802312401593416  0.8532425814362021  1.0000
  H   H19       1.0  0.572610516704491  0.35674269580129425  0.31604034703588985  1.0000
  H   H20       1.0  0.42738948360188206  0.6432573032251935  0.6839596531517352  1.0000
  H   H21       1.0  0.41216092454314407  0.33279372925442313  0.47714256933853033  1.0000
  H   H22       1.0  0.5878390752282241  0.6672062709613142  0.5228574306403225  1.0000
  H   H23       1.0  0.9324990154218215  0.19727769695069058  0.9198645329588829  1.0000
  H   H24       1.0  0.06750098434954692  0.8027223032650467  0.08013546701996994  1.0000
  H   H25       1.0  0.10397405061821587  0.0229124328426802  0.8946946978190508  1.0000
  H   H26       1.0  0.8960259491531524  0.9770875673730569  0.10530530215980219  1.0000
  H   H27       1.0  0.3356300572914533  0.06214460227949261  0.974554076933277  1.0000
  H   H28       1.0  0.664369942479915  0.9378553979362447  0.02544592304557588  1.0000
  H   H29       1.0  0.15590799450032258  0.06258150150573208  0.058873953079584596  1.0000
  H   H30       1.0  0.8440920052710459  0.9374184987100052  0.9411260468992684  1.0000
  H   H31       1.0  0.21190538795017724  0.3604384290026439  0.9281972110357704  1.0000
  H   H32       1.0  0.7880946118211911  0.6395615712130934  0.07180278894308244  1.0000
  H   H33       1.0  0.026163882483506866  0.36327234070152203  0.009021699846063587  1.0000
  H   H34       1.0  0.9738361178191702  0.6367276583194657  0.9909782996134274  1.0000
  H   H35       1.0  0.7538033052667319  0.07711579644229334  0.4256394000532023  1.0000
  H   H36       1.0  0.24619669450463647  0.9228842037734438  0.5743605999256506  1.0000
  H   H37       1.0  0.4900408626905695  0.1432187154859535  0.3166785533018399  1.0000
  H   H38       1.0  0.5099591370807988  0.8567812847297839  0.683321446677013  1.0000
  H   H39       1.0  0.23946901075094223  0.06616388356509381  0.3885953166410745  1.0000
  H   H40       1.0  0.7605309902561578  0.9338361166553694  0.6114046832641759  1.0000
  H   H41       1.0  0.35898049860145825  0.7523789281567014  0.9312008598492217  1.0000
  H   H42       1.0  0.6410195011699099  0.247621072059036  0.06879914012963116  1.0000
  H   H43       1.0  0.281456012491458  0.6218567877938534  0.9833972439104344  1.0000
  H   H44       1.0  0.7185439872799104  0.37814321242188376  0.016602756068418587  1.0000
  H   H45       1.0  0.8325683327297473  0.2158595206684426  0.19130306976850928  1.0000
  H   H46       1.0  0.16743166757662573  0.7841404783580451  0.808696930419116  1.0000
  H   H47       1.0  0.003485512087602534  0.2029222258939696  0.23884798153513856  1.0000
  H   H48       1.0  0.9965144882187704  0.7970777731325183  0.7611520186524866  1.0000
  C   C1        1.0  0.2571379958978414  0.17796849259192585  0.7519497941073399  1.0000
  C   C2        1.0  0.7428620044085317  0.8220315064345619  0.24805020608028527  1.0000
  C   C3        1.0  0.29195875395644677  0.2698588084311695  0.661813552484316  1.0000
  C   C4        1.0  0.7080412458149217  0.7301411917845676  0.3381864474945371  1.0000
  C   C5        1.0  0.17432211664008374  0.42958426446314235  0.6220341674828662  1.0000
  C   C6        1.0  0.8256778831312847  0.570415735752595  0.37796583249598653  1.0000
  C   C7        1.0  0.021577795192663174  0.48857757248057015  0.6795988758625084  1.0000
  C   C8        1.0  0.9784222045787053  0.511422427735167  0.3204011241163445  1.0000
  C   C9        1.0  0.9905015952560111  0.3925602229267215  0.7691251659167672  1.0000
  C   C10       1.0  0.009498404515357198  0.6074397772890157  0.23087483406208564  1.0000
  C   C11       1.0  0.20856076308171462  0.5287574232422262  0.5255154024997613  1.0000
  C   C12       1.0  0.7914392372246585  0.4712425757842615  0.474484597687864  1.0000
  C   C13       1.0  0.10921421805507123  0.6967018554118962  0.49701586310416124  1.0000
  C   C14       1.0  0.8907857829520287  0.3032981448085671  0.5029841368010891  1.0000
  C   C15       1.0  0.1347142146981261  0.7900326438716984  0.40494983583582583  1.0000
  C   C16       1.0  0.8652857850732423  0.20996735634403874  0.595050164143027  1.0000
  C   C17       1.0  0.2623240233493277  0.7220082215832077  0.3357494442862261  1.0000
  C   C18       1.0  0.7376759764220405  0.27799177863252955  0.6642505556926268  1.0000
  C   C19       1.0  0.28914199906978966  0.8146110076179249  0.23949745082979418  1.0000
  C   C20       1.0  0.7108580007015787  0.18538899259781236  0.7605025491490586  1.0000
  C   C21       1.0  0.4086774822342604  0.742829548061859  0.17247990293090418  1.0000
  C   C22       1.0  0.591322517537108  0.25717045215387824  0.8275200970479487  1.0000
  C   C23       1.0  0.5090977394455357  0.576638862444847  0.2001482914080551  1.0000
  C   C24       1.0  0.4909022603258325  0.42336113777089035  0.7998517085707978  1.0000
  C   C25       1.0  0.4905218444178523  0.4840167100483172  0.29456635275077847  1.0000
  C   C26       1.0  0.509478155353516  0.5159832901674202  0.7054336472280744  1.0000
  C   C27       1.0  0.3652680730792655  0.5535196498953431  0.36407407712297957  1.0000
  C   C28       1.0  0.6347319266921028  0.4464803503203942  0.6359259228558733  1.0000
  C   C29       1.0  0.33543895787897754  0.46079201718507373  0.45906884318826335  1.0000
  C   C30       1.0  0.6645610418923907  0.5392079830306636  0.5409311567905896  1.0000
  C   C31       1.0  0.07533398904506766  0.14142958742498418  0.9030895401242375  1.0000
  C   C32       1.0  0.9246660107263008  0.858570412790753  0.0969104598546154  1.0000
  C   C33       1.0  0.193720399939935  0.12991898932763002  0.9877181595316641  1.0000
  C   C34       1.0  0.8062795998314334  0.8700810108881072  0.012281840447188812  1.0000
  C   C35       1.0  0.1675372457069277  0.29267092410101947  0.996601435379857  1.0000
  C   C36       1.0  0.8324627540644407  0.7073290761147177  0.003398564598995904  1.0000
  C   C37       1.0  0.6434437985270456  0.04265147128846907  0.458732844880711  1.0000
  C   C38       1.0  0.3565562012443228  0.9573485289272682  0.5412671550981418  1.0000
  C   C39       1.0  0.49536899702860715  0.0805403116740713  0.3971030651019732  1.0000
  C   C40       1.0  0.5046310027427613  0.919459688541666  0.6028969348768797  1.0000
  C   C41       1.0  0.3524752732834524  0.037837563400752595  0.4381952970636989  1.0000
  C   C42       1.0  0.6475247282586521  0.9621624356304611  0.5618047030503238  1.0000
  N   N1        1.0  0.10691228310546583  0.23926854933770325  0.8042286767090755  1.0000
  N   N2        1.0  0.8930877166659024  0.7607314508780341  0.19577132326977745  1.0000
  O   O1        1.0  0.2856926011015142  0.44726768712446435  0.08091582385918325  1.0000
  O   O2        1.0  0.7143073986698542  0.5527323130912729  0.9190841761196696  1.0000
  O   O3        1.0  0.48070549077944286  0.16863979615433108  0.0912458194512959  1.0000
  O   O4        1.0  0.5192945095269302  0.8313602028721565  0.9087541807363294  1.0000
  O   O5        1.0  0.2118295275179826  0.23200162421431375  0.19485286016832404  1.0000
  O   O6        1.0  0.7881704727883907  0.767998374812174  0.8051471400193012  1.0000
  O   O7        1.0  0.2491811152114319  0.7294044410662639  0.9370098987245649  1.0000
  O   O8        1.0  0.7508188845599365  0.27059555914947336  0.06299010125428799  1.0000
  O   O9        1.0  0.8962925134287584  0.17844784039685294  0.2577763865812321  1.0000
  O   O10       1.0  0.10370748634260997  0.8215521598188844  0.7422236133976208  1.0000
  S   S1        1.0  0.29547394282778977  0.2840876781548977  0.09949939820753229  1.0000
  S   S2        1.0  0.7045260569435785  0.7159123220608395  0.9005006017713207  1.0000
