data_image0
_chemical_formula_structural       H96C72N8O24
_chemical_formula_sum              "H96 C72 N8 O24"
_cell_length_a       18.03177799280872
_cell_length_b       5.319263832170822
_cell_length_c       19.168673889301612
_cell_angle_alpha    90.0
_cell_angle_beta     90.06991075708576
_cell_angle_gamma    90.0

_space_group_name_H-M_alt    "P 1"
_space_group_IT_number       1

loop_
  _space_group_symop_operation_xyz
  'x, y, z'

loop_
  _atom_site_type_symbol
  _atom_site_label
  _atom_site_symmetry_multiplicity
  _atom_site_fract_x
  _atom_site_fract_y
  _atom_site_fract_z
  _atom_site_occupancy
  H   H1        1.0  0.9895068716034225  0.3668286630564967  0.9503667097987634  1.0000
  H   H2        1.0  0.4895068715488222  0.8668286637924235  0.45036671009025436  1.0000
  H   H3        1.0  0.4895068713731294  0.6331713365353976  0.9503667097687339  1.0000
  H   H4        1.0  0.9895068717791154  0.1331713357994707  0.45036671012028345  1.0000
  H   H5        1.0  0.010493128502849315  0.6331713365353976  0.04963329013992861  1.0000
  H   H6        1.0  0.5104931285574497  0.1331713357994707  0.5496332898484375  1.0000
  H   H7        1.0  0.5104931287331426  0.3668286630564967  0.04963329016995787  1.0000
  H   H8        1.0  0.010493128327156497  0.8668286637924235  0.5496332898184083  1.0000
  H   H9        1.0  0.14006831027121958  0.9064016247587335  0.8741675865342909  1.0000
  H   H10       1.0  0.6400683101255652  0.40640162402280666  0.3741675863607749  1.0000
  H   H11       1.0  0.6400683099469435  0.09359837483316082  0.8741675865609285  1.0000
  H   H12       1.0  0.14006830989527203  0.5935983755690877  0.3741675863307457  1.0000
  H   H13       1.0  0.8599316898350523  0.09359837483316082  0.12583241340440096  1.0000
  H   H14       1.0  0.3599316899807067  0.5935983755690877  0.625832413577917  1.0000
  H   H15       1.0  0.35993168960475913  0.9064016247587335  0.1258324133743717  1.0000
  H   H16       1.0  0.8599316896564306  0.40640162402280666  0.6258324136045545  1.0000
  H   H17       1.0  0.1321060159544564  0.7057979691275885  0.7567387707679122  1.0000
  H   H18       1.0  0.6321060163633712  0.20579796839166167  0.2567387705977878  1.0000
  H   H19       1.0  0.6321060161847495  0.29420203046430576  0.7567387707979414  1.0000
  H   H20       1.0  0.132106016133078  0.7942020312002326  0.25673877056775857  1.0000
  H   H21       1.0  0.8678939835972462  0.29420203046430576  0.2432612291673881  1.0000
  H   H22       1.0  0.36789398374290067  0.7942020312002326  0.7432612293409041  1.0000
  H   H23       1.0  0.3678939839185935  0.7057979691275885  0.24326122966242428  1.0000
  H   H24       1.0  0.8678939839731938  0.20579796839166167  0.7432612293709333  1.0000
  H   H25       1.0  0.051859562119918295  0.32684664924591156  0.7388638961763729  1.0000
  H   H26       1.0  0.551859561971335  0.826846648101879  0.23886389652453083  1.0000
  H   H27       1.0  0.5518595617956423  0.6731533503459828  0.7388638962030106  1.0000
  H   H28       1.0  0.05185956174104195  0.1731533514900153  0.23886389649450154  1.0000
  H   H29       1.0  0.9481404379863536  0.6731533503459828  0.26113610376231894  1.0000
  H   H30       1.0  0.4481404381320079  0.1731533514900153  0.7611361039358349  1.0000
  H   H31       1.0  0.4481404377560604  0.32684664924591156  0.2611361037322897  1.0000
  H   H32       1.0  0.948140437807732  0.826846648101879  0.7611361039624724  1.0000
  H   H33       1.0  0.9786873902031779  0.16475669146163457  0.843771738237755  1.0000
  H   H34       1.0  0.47868739015150635  0.6647566921975614  0.343771738007572  1.0000
  H   H35       1.0  0.4786873899728847  0.8352433081302597  0.8437717382077258  1.0000
  H   H36       1.0  0.9786873903817995  0.3352433073943329  0.34377173803760125  1.0000
  H   H37       1.0  0.02131260990309397  0.8352433081302597  0.156228261700937  1.0000
  H   H38       1.0  0.5213126099547656  0.3352433073943329  0.6562282619311199  1.0000
  H   H39       1.0  0.521312610133387  0.16475669146163457  0.1562282617309663  1.0000
  H   H40       1.0  0.02131260972447233  0.6647566921975614  0.6562282619010906  1.0000
  H   H41       1.0  0.11132809822472918  0.9680475931381921  0.9995339184149956  1.0000
  H   H42       1.0  0.6113280980761461  0.4680475942822246  0.49953391876315345  1.0000
  H   H43       1.0  0.6113280984550223  0.03195240645370226  0.9995339184450249  1.0000
  H   H44       1.0  0.11132809840042196  0.5319524071896291  0.49953391873651587  1.0000
  H   H45       1.0  0.8886719018815427  0.03195240645370226  0.00046608152369632125  1.0000
  H   H46       1.0  0.38867190147555675  0.5319524071896291  0.5004660811721469  1.0000
  H   H47       1.0  0.38867190165124954  0.9680475931381921  0.0004660814936670556  1.0000
  H   H48       1.0  0.8886719017058499  0.4680475942822246  0.5004660812021761  1.0000
  H   H49       1.0  0.25005903478540786  0.35670043259081335  0.06986368876843657  1.0000
  H   H50       1.0  0.7500590348370794  0.8567004333267403  0.5698636889986194  1.0000
  H   H51       1.0  0.750059035015701  0.6432995670010809  0.06986368879846584  1.0000
  H   H52       1.0  0.2500590351613554  0.14329956626515405  0.5698636889719818  1.0000
  H   H53       1.0  0.749940965320864  0.6432995670010809  0.9301363111702553  1.0000
  H   H54       1.0  0.24994096526919243  0.14329956626515405  0.43013631094007243  1.0000
  H   H55       1.0  0.2499409650905708  0.35670043259081335  0.9301363111402261  1.0000
  H   H56       1.0  0.7499409649449165  0.8567004333267403  0.43013631096671007  1.0000
  H   H57       1.0  0.17337194066798026  0.5608209583359879  0.06887855743090947  1.0000
  H   H58       1.0  0.6733719407196517  0.06082095948002047  0.5688785576610923  1.0000
  H   H59       1.0  0.6733719408982733  0.4391790412559064  0.06887855746093872  1.0000
  H   H60       1.0  0.17337194104392778  0.9391790401118738  0.5688785576344547  1.0000
  H   H61       1.0  0.8266280588837225  0.4391790412559064  0.9311214425043909  1.0000
  H   H62       1.0  0.3266280588320509  0.9391790401118738  0.4311214422742079  1.0000
  H   H63       1.0  0.3266280592079985  0.5608209583359879  0.9311214424777533  1.0000
  H   H64       1.0  0.8266280590623442  0.06082095948002047  0.4311214423042372  1.0000
  H   H65       1.0  0.1478213323691684  0.4489434488203274  0.1958592696615268  1.0000
  H   H66       1.0  0.64782133242084  0.9489434476762948  0.6958592698917097  1.0000
  H   H67       1.0  0.6478213325994616  0.5510565526515263  0.19585926969155606  1.0000
  H   H68       1.0  0.14782133274511594  0.051056551915599435  0.6958592698650721  1.0000
  H   H69       1.0  0.8521786671825343  0.5510565526515263  0.8041407302737734  1.0000
  H   H70       1.0  0.35217866768543193  0.051056551915599435  0.3041407300469822  1.0000
  H   H71       1.0  0.3521786675068103  0.4489434488203274  0.8041407302471358  1.0000
  H   H72       1.0  0.8521786673611559  0.9489434476762948  0.30414073007361986  1.0000
  H   H73       1.0  0.23103693908620626  0.6183857510706693  0.18172206529666562  1.0000
  H   H74       1.0  0.7310369391408066  0.11838575033474238  0.6817220650051746  1.0000
  H   H75       1.0  0.7310369393164994  0.38161425040118446  0.1817220653266949  1.0000
  H   H76       1.0  0.23103693946508258  0.8816142492571519  0.6817220649785369  1.0000
  H   H77       1.0  0.7689630610200656  0.38161425040118446  0.8182779346420263  1.0000
  H   H78       1.0  0.2689630609654653  0.8816142492571519  0.31827793493351725  1.0000
  H   H79       1.0  0.2689630607897725  0.6183857510706693  0.8182779346119969  1.0000
  H   H80       1.0  0.7689630606411892  0.11838575033474238  0.3182779349601549  1.0000
  H   H81       1.0  0.22062487899298575  0.046832089525880104  0.20015958212608087  1.0000
  H   H82       1.0  0.7206248790446572  0.5468320883818475  0.7001595823562637  1.0000
  H   H83       1.0  0.7206248792232789  0.9531679119459736  0.20015958215611013  1.0000
  H   H84       1.0  0.22062487936893327  0.4531679112100468  0.7001595823296262  1.0000
  H   H85       1.0  0.7793751205587169  0.9531679119459736  0.7998404178092193  1.0000
  H   H86       1.0  0.2793751210616146  0.4531679112100468  0.2998404175824282  1.0000
  H   H87       1.0  0.27937512088299293  0.046832089525880104  0.7998404177825817  1.0000
  H   H88       1.0  0.7793751207373386  0.5468320883818475  0.2998404176090658  1.0000
  H   H89       1.0  0.3035092339195217  0.21885252296743288  0.18839721716210156  1.0000
  H   H90       1.0  0.8035092339741221  0.7188525237033597  0.6883972168706106  1.0000
  H   H91       1.0  0.8035092335952457  0.7811474766244614  0.1883972171887392  1.0000
  H   H92       1.0  0.30350923374382893  0.28114747588853456  0.6883972168405814  1.0000
  H   H93       1.0  0.6964907661867501  0.7811474766244614  0.8116027827765904  1.0000
  H   H94       1.0  0.19649076613214975  0.28114747588853456  0.3116027830680813  1.0000
  H   H95       1.0  0.19649076595645695  0.21885252296743288  0.8116027827465612  1.0000
  H   H96       1.0  0.6964907663624429  0.7188525237033597  0.31160278309811057  1.0000
  C   C1        1.0  0.06357799423139752  0.646801382400299  0.9220241199885693  1.0000
  C   C2        1.0  0.5635779946373835  0.1468013816643722  0.4220241203401188  1.0000
  C   C3        1.0  0.5635779944616907  0.35319861719159523  0.9220241200185987  1.0000
  C   C4        1.0  0.06357799440709033  0.8531986179275219  0.42202412031008957  1.0000
  C   C5        1.0  0.9364220053203053  0.35319861719159523  0.07797587994673098  1.0000
  C   C6        1.0  0.4364220054688883  0.8531986179275219  0.5779758795985731  1.0000
  C   C7        1.0  0.4364220056445812  0.646801382400299  0.07797587992009336  1.0000
  C   C8        1.0  0.9364220056991813  0.1468013816643722  0.5779758796286024  1.0000
  C   C9        1.0  0.10514911112573296  0.7429033123155482  0.8648983874883451  1.0000
  C   C10       1.0  0.6051491109800786  0.24290331157962136  0.36489838731482915  1.0000
  C   C11       1.0  0.6051491113560261  0.25709668727634605  0.8648983875183746  1.0000
  C   C12       1.0  0.10514911130435457  0.7570966880122729  0.3648983872881916  1.0000
  C   C13       1.0  0.894850888980539  0.25709668727634605  0.13510161245034674  1.0000
  C   C14       1.0  0.39485088857162415  0.7570966880122729  0.635101612620471  1.0000
  C   C15       1.0  0.39485088874731694  0.7429033123155482  0.13510161294199133  1.0000
  C   C16       1.0  0.8948508888019173  0.24290331157962136  0.6351016126505004  1.0000
  C   C17       1.0  0.1004287713042703  0.6300533750047639  0.8003303278935253  1.0000
  C   C18       1.0  0.6004287711556872  0.13005337426883698  0.30033032824168315  1.0000
  C   C19       1.0  0.6004287715345635  0.3699466264670898  0.8003303279235546  1.0000
  C   C20       1.0  0.10042877147996312  0.8699466253230573  0.30033032821504557  1.0000
  C   C21       1.0  0.8995712288020017  0.3699466264670898  0.19966967204516659  1.0000
  C   C22       1.0  0.3995712283930868  0.8699466253230573  0.6996696722152909  1.0000
  C   C23       1.0  0.3995712285717084  0.6300533750047639  0.19966967201513733  1.0000
  C   C24       1.0  0.89957122862338  0.13005337426883698  0.6996696722453202  1.0000
  C   C25       1.0  0.05507443257755039  0.41762935813871843  0.7895415045250787  1.0000
  C   C26       1.0  0.5550744324318959  0.917629356994686  0.2895415043515626  1.0000
  C   C27       1.0  0.5550744328078435  0.5823706433331353  0.7895415045551079  1.0000
  C   C28       1.0  0.05507443275617202  0.08237064259720842  0.28954150432492504  1.0000
  C   C29       1.0  0.9449255675287215  0.5823706433331353  0.21045849541361328  1.0000
  C   C30       1.0  0.4449255676743759  0.08237064259720842  0.7104584955871293  1.0000
  C   C31       1.0  0.44492556729842836  0.41762935813871843  0.21045849538358402  1.0000
  C   C32       1.0  0.9449255673500998  0.917629356994686  0.7104584956137668  1.0000
  C   C33       1.0  0.015544574803975409  0.3265666443341431  0.8453429338270241  1.0000
  C   C34       1.0  0.5155445746553922  0.8265666450700699  0.34534293417518214  1.0000
  C   C35       1.0  0.5155445750342685  0.6734333552577512  0.8453429338570535  1.0000
  C   C36       1.0  0.01554457497966823  0.17343335452182432  0.3453429341485445  1.0000
  C   C37       1.0  0.9844554253022965  0.6734333552577512  0.15465706611166763  1.0000
  C   C38       1.0  0.4844554248933816  0.17343335452182432  0.654657066281792  1.0000
  C   C39       1.0  0.4844554250720033  0.3265666443341431  0.15465706608163837  1.0000
  C   C40       1.0  0.9844554251236748  0.8265666450700699  0.6546570663118212  1.0000
  C   C41       1.0  0.14502821855560022  0.177748556911519  0.07647955807420724  1.0000
  C   C42       1.0  0.6450282186102005  0.6777485557674865  0.5764795577827162  1.0000
  C   C43       1.0  0.6450282187858934  0.8222514445603347  0.0764795581042365  1.0000
  C   C44       1.0  0.1450282183769786  0.32225144382440785  0.5764795582743608  1.0000
  C   C45       1.0  0.8549717815506717  0.8222514445603347  0.9235204418644847  1.0000
  C   C46       1.0  0.3549717814960713  0.32225144382440785  0.4235204421559756  1.0000
  C   C47       1.0  0.3549717813203785  0.177748556911519  0.9235204418344553  1.0000
  C   C48       1.0  0.8549717811717954  0.6777485557674865  0.42352044218261325  1.0000
  C   C49       1.0  0.19614321067069398  0.392932515841579  0.09485771516478597  1.0000
  C   C50       1.0  0.6961432107223655  0.8929325165775059  0.5948577153949689  1.0000
  C   C51       1.0  0.6961432109009871  0.6070674837503152  0.09485771519481524  1.0000
  C   C52       1.0  0.19614321049207237  0.1070674848943478  0.5948577153649396  1.0000
  C   C53       1.0  0.8038567894355779  0.6070674837503152  0.905142284773906  1.0000
  C   C54       1.0  0.30385678938390637  0.1070674848943478  0.40514228454372303  1.0000
  C   C55       1.0  0.3038567892052847  0.392932515841579  0.9051422847438768  1.0000
  C   C56       1.0  0.8038567890596303  0.8929325165775059  0.40514228457036067  1.0000
  C   C57       1.0  0.20374037344781612  0.43584395945516774  0.1731418669377809  1.0000
  C   C58       1.0  0.7037403734994877  0.9358439601910946  0.6731418671679639  1.0000
  C   C59       1.0  0.7037403736781093  0.5641560401367265  0.17314186696781017  1.0000
  C   C60       1.0  0.20374037382376362  0.06415604128075908  0.6731418671413262  1.0000
  C   C61       1.0  0.7962596261038866  0.5641560401367265  0.8268581329975193  1.0000
  C   C62       1.0  0.29625962605221506  0.06415604128075908  0.32685813276733644  1.0000
  C   C63       1.0  0.2962596264281626  0.43584395945516774  0.8268581329708817  1.0000
  C   C64       1.0  0.7962596262825082  0.9358439601910946  0.3268581327973657  1.0000
  C   C65       1.0  0.2471985235172958  0.22952342063126158  0.21063676297247497  1.0000
  C   C66       1.0  0.7471985235689673  0.7295234213671884  0.7106367632026579  1.0000
  C   C67       1.0  0.747198523747589  0.7704765789606327  0.21063676300250422  1.0000
  C   C68       1.0  0.24719852333867415  0.2704765782247059  0.7106367631726286  1.0000
  C   C69       1.0  0.7528014765889761  0.7704765789606327  0.7893632369662169  1.0000
  C   C70       1.0  0.2528014765373045  0.2704765782247059  0.28936323673603404  1.0000
  C   C71       1.0  0.25280147635868294  0.22952342063126158  0.7893632369361876  1.0000
  C   C72       1.0  0.7528014762130285  0.7295234213671884  0.2893632367626717  1.0000
  N   N1        1.0  0.020591981971508647  0.4390900984971098  0.9085956030356113  1.0000
  N   N2        1.0  0.5205919818258543  0.9390900992330367  0.4085956028620953  1.0000
  N   N3        1.0  0.5205919822018019  0.5609099010947844  0.9085956030656406  1.0000
  N   N4        1.0  0.020591982150130285  0.060909902238817024  0.4085956028354577  1.0000
  N   N5        1.0  0.9794080181347633  0.5609099010947844  0.09140439690308062  1.0000
  N   N6        1.0  0.47940801828041757  0.060909902238817024  0.5914043970765966  1.0000
  N   N7        1.0  0.4794080179044701  0.4390900984971098  0.09140439687305135  1.0000
  N   N8        1.0  0.9794080179561416  0.9390900992330367  0.5914043971032342  1.0000
  O   O1        1.0  0.06344790125969488  0.7392490058902045  0.9837363851511571  1.0000
  O   O2        1.0  0.5634479016686097  0.2392490051542777  0.48373638498103283  1.0000
  O   O3        1.0  0.563447901489988  0.26075099370168975  0.9837363851811863  1.0000
  O   O4        1.0  0.0634479014353877  0.7607509944376165  0.48373638547267733  1.0000
  O   O5        1.0  0.9365520982920079  0.26075099370168975  0.01626361478414309  1.0000
  O   O6        1.0  0.4365520984376622  0.7607509944376165  0.516263614957659  1.0000
  O   O7        1.0  0.43655209861628386  0.7392490058902045  0.016263614757505467  1.0000
  O   O8        1.0  0.9365520986679553  0.2392490051542777  0.5162636149876884  1.0000
  O   O9        1.0  0.14651427146742418  0.11814608183168945  0.008945664510280038  1.0000
  O   O10       1.0  0.6465142715190958  0.6181460825676163  0.5089456647404629  1.0000
  O   O11       1.0  0.6465142716977175  0.8818539177602048  0.008945664540309305  1.0000
  O   O12       1.0  0.14651427128880257  0.381853917024278  0.5089456647104337  1.0000
  O   O13       1.0  0.8534857286388478  0.8818539177602048  0.9910543354284118  1.0000
  O   O14       1.0  0.35348572858717614  0.381853917024278  0.491054335198229  1.0000
  O   O15       1.0  0.35348572840855447  0.11814608183168945  0.9910543353983826  1.0000
  O   O16       1.0  0.8534857282629001  0.6181460825676163  0.4910543352248666  1.0000
  O   O17       1.0  0.10522831489625663  0.06968962091295935  0.11944788637256816  1.0000
  O   O18       1.0  0.605228314950857  0.5696896216488861  0.6194478860810771  1.0000
  O   O19       1.0  0.6052283151265498  0.930310378678935  0.11944788640259742  1.0000
  O   O20       1.0  0.10522831527220416  0.4303103779430081  0.6194478865761134  1.0000
  O   O21       1.0  0.8947716846554461  0.930310378678935  0.8805521135627321  1.0000
  O   O22       1.0  0.3947716851554149  0.4303103779430081  0.3805521138576147  1.0000
  O   O23       1.0  0.39477168497972204  0.06968962091295935  0.8805521135360943  1.0000
  O   O24       1.0  0.8947716848311389  0.5696896216488861  0.3805521138842523  1.0000
