data_image0
_chemical_formula_structural       H84C76N12O28Cl16
_chemical_formula_sum              "H84 C76 N12 O28 Cl16"
_cell_length_a       7.419638889706382
_cell_length_b       15.230206011849672
_cell_length_c       19.855810036406258
_cell_angle_alpha    91.43201223879855
_cell_angle_beta     95.24716412339126
_cell_angle_gamma    97.06074827292444

_space_group_name_H-M_alt    "P 1"
_space_group_IT_number       1

loop_
  _space_group_symop_operation_xyz
  'x, y, z'

loop_
  _atom_site_type_symbol
  _atom_site_label
  _atom_site_symmetry_multiplicity
  _atom_site_fract_x
  _atom_site_fract_y
  _atom_site_fract_z
  _atom_site_occupancy
  H   H1        1.0  0.9766990527538656  0.1352746084343189  0.7253832897826622  1.0000
  H   H2        1.0  0.023300946832893084  0.8647253917849587  0.2746167104388319  1.0000
  H   H3        1.0  0.8717762713834145  0.07095047498266602  0.8157318747446008  1.0000
  H   H4        1.0  0.12822372820334407  0.9290495252366117  0.1842681254768932  1.0000
  H   H5        1.0  0.9684388422022293  0.08774032619573259  0.9650922821817555  1.0000
  H   H6        1.0  0.03156115725650609  0.9122596740012908  0.034907717533650635  1.0000
  H   H7        1.0  0.019060146869698563  0.00034545806008436347  0.9104824263375411  1.0000
  H   H8        1.0  0.9809398539371535  0.9996545421377724  0.08951757337841161  1.0000
  H   H9        1.0  0.691938086029987  0.9526398851007462  0.8801716693532493  1.0000
  H   H10       1.0  0.3080619149048884  0.04736011511936489  0.11982833086879126  1.0000
  H   H11       1.0  0.7384762490792878  0.9533031487712377  0.9682576817234156  1.0000
  H   H12       1.0  0.2615237503417875  0.0466968507863622  0.03174231849653519  1.0000
  H   H13       1.0  0.6166440456934066  0.09776052611931316  0.9809513930578821  1.0000
  H   H14       1.0  0.3833559537276687  0.9022394734382866  0.019048607162068656  1.0000
  H   H15       1.0  0.45298424392329356  0.022170244399984537  0.9319050579191892  1.0000
  H   H16       1.0  0.5470157553697587  0.9778297551353611  0.06809494179467371  1.0000
  H   H17       1.0  0.5434778738933471  0.09052394901478683  0.8259198818060052  1.0000
  H   H18       1.0  0.45652212556538835  0.9094760511822366  0.17408011790940092  1.0000
  H   H19       1.0  0.5048426463026593  0.1764573943569796  0.8830124679867414  1.0000
  H   H20       1.0  0.49515735315607623  0.8235426058400437  0.11698753172866473  1.0000
  H   H21       1.0  0.8339528411187439  0.21195024411779229  0.917228898256573  1.0000
  H   H22       1.0  0.1660471583399915  0.7880497560792311  0.08277110145883304  1.0000
  H   H23       1.0  0.7848027071272293  0.21657544888475957  0.8280580216956421  1.0000
  H   H24       1.0  0.21519729216582284  0.7834245506505861  0.17194197801822078  1.0000
  H   H25       1.0  0.15425904949350971  0.18644619875754687  0.9041499794592215  1.0000
  H   H26       1.0  0.8457409513133424  0.8135538014403098  0.09585002025673114  1.0000
  H   H27       1.0  0.19024261286285143  0.0973895812043428  0.8485140542027819  1.0000
  H   H28       1.0  0.8097573867239073  0.9026104190149349  0.1514859460187122  1.0000
  H   H29       1.0  0.034684848963690576  0.26673596675810096  0.8019116890929483  1.0000
  H   H30       1.0  0.9653151519711848  0.73326403346201  0.19808831112909228  1.0000
  H   H31       1.0  0.26495394829083946  0.24982592023383443  0.8043931518830194  1.0000
  H   H32       1.0  0.735046051167896  0.7501740799631891  0.1956068478323867  1.0000
  H   H33       1.0  0.5896991803527869  0.9252723502912382  0.5271494587955851  1.0000
  H   H34       1.0  0.4103008192339717  0.0747276499280395  0.47285054142590904  1.0000
  H   H35       1.0  0.8158245867505858  0.7652912829161755  0.6817823354404628  1.0000
  H   H36       1.0  0.18417541283617284  0.234708717303102  0.31821766478103103  1.0000
  H   H37       1.0  0.2292735417000244  0.10036200056352543  0.7220694640049772  1.0000
  H   H38       1.0  0.7707264578867343  0.8996379996557522  0.2779305362165168  1.0000
  H   H39       1.0  0.09684714888818938  0.9241287634977977  0.521733956387314  1.0000
  H   H40       1.0  0.9031528519186629  0.07587123670005924  0.47826604332863865  1.0000
  H   H41       1.0  0.3137099440967431  0.7603679533552352  0.6754565816656946  1.0000
  H   H42       1.0  0.6862900567101092  0.2396320468426215  0.3245434180502582  1.0000
  H   H43       1.0  0.5583526189618234  0.36197432331557416  0.7758401751189191  1.0000
  H   H44       1.0  0.4416473803312287  0.6380256762197714  0.2241598245949437  1.0000
  H   H45       1.0  0.44191852174395374  0.4253397027235581  0.6848345164597409  1.0000
  H   H46       1.0  0.5580814778428047  0.5746602974957193  0.315165483761753  1.0000
  H   H47       1.0  0.4543298144788521  0.40631296914265685  0.5353068919657292  1.0000
  H   H48       1.0  0.5456701862903399  0.5936870304157764  0.46469310825476806  1.0000
  H   H49       1.0  0.5788097174438885  0.4938888449381707  0.5889967952348414  1.0000
  H   H50       1.0  0.4211902819771867  0.5061111546194291  0.4110032049851094  1.0000
  H   H51       1.0  0.293113898257354  0.5437284209098415  0.6201020902668721  1.0000
  H   H52       1.0  0.7068861013294047  0.4562715793094361  0.37989790995462197  1.0000
  H   H53       1.0  0.2943982226561186  0.5419274990046862  0.532023686241653  1.0000
  H   H54       1.0  0.70560177693064  0.4580725012145915  0.4679763139798411  1.0000
  H   H55       1.0  0.09096809430311159  0.39836377994768757  0.5205666493957168  1.0000
  H   H56       1.0  0.9090319051556238  0.6016362202493359  0.47943335031968926  1.0000
  H   H57       1.0  0.9911397715062594  0.47481806968946444  0.5693054306656536  1.0000
  H   H58       1.0  0.008860229428615965  0.5251819305306465  0.43069456955638685  1.0000
  H   H59       1.0  0.10131694435300104  0.40834858023379267  0.6757936382671081  1.0000
  H   H60       1.0  0.8986830565818743  0.5916514199863182  0.3242063619549324  1.0000
  H   H61       1.0  0.9869445499479526  0.32210615178923074  0.6198613211102031  1.0000
  H   H62       1.0  0.013055449638806175  0.6778938484300469  0.380138679111291  1.0000
  H   H63       1.0  0.2796772014831533  0.2839107023411689  0.5846173409917848  1.0000
  H   H64       1.0  0.7203227979755822  0.7160892978558545  0.4153826587236214  1.0000
  H   H65       1.0  0.2734613656391734  0.2805566056015877  0.6741104157707026  1.0000
  H   H66       1.0  0.7265386350019954  0.7194433939345913  0.32588958394370676  1.0000
  H   H67       1.0  0.7303562390310421  0.39678546149592775  0.6511226742005148  1.0000
  H   H68       1.0  0.2696437603900333  0.603214538061672  0.348877326019436  1.0000
  H   H69       1.0  0.6191194190976859  0.30692921125544936  0.5970665558011644  1.0000
  H   H70       1.0  0.38088058167150624  0.6930707883029837  0.4029334444193331  1.0000
  H   H71       1.0  0.5105715160334053  0.23008780335741927  0.7011727893265998  1.0000
  H   H72       1.0  0.4894284847357868  0.769912196201014  0.2988272108938976  1.0000
  H   H73       1.0  0.7478087785794735  0.24551536570699606  0.6975089292558817  1.0000
  H   H74       1.0  0.25219122235540187  0.7544846345131151  0.30249107096615885  1.0000
  H   H75       1.0  0.35569699676015837  0.5646126912742284  0.9726610420704979  1.0000
  H   H76       1.0  0.6443030025328937  0.43538730826111727  0.027338957643365015  1.0000
  H   H77       1.0  0.5804476335900746  0.7312152175050033  0.8206423208578622  1.0000
  H   H78       1.0  0.41955236570297755  0.2687847820303424  0.17935767885600068  1.0000
  H   H79       1.0  0.8287326365554014  0.4005899601062102  0.7793596399725773  1.0000
  H   H80       1.0  0.17126736303135728  0.5994100401130674  0.22064036024891676  1.0000
  H   H81       1.0  0.8700697466322852  0.587043822815273  0.9747223123926609  1.0000
  H   H82       1.0  0.1299302528264502  0.4129561773817505  0.025277687322745147  1.0000
  H   H83       1.0  0.09694884095959473  0.7436279747902393  0.8173500458034945  1.0000
  H   H84       1.0  0.9030511583334575  0.2563720247451064  0.18264995391036853  1.0000
  C   C1        1.0  0.9193879791695541  0.04590527618832872  0.9196383208782971  1.0000
  C   C2        1.0  0.08061202012349811  0.954094723347017  0.08036167883556587  1.0000
  C   C3        1.0  0.7308827006919205  0.9967624632869904  0.925120915631765  1.0000
  C   C4        1.0  0.26911729889483815  0.0032375369322871577  0.07487908458972892  1.0000
  C   C5        1.0  0.5889739168042406  0.060221986604969524  0.9322453798074631  1.0000
  C   C6        1.0  0.4110260838369282  0.9397780129312095  0.0677546199069463  1.0000
  C   C7        1.0  0.592820442947886  0.12496916634200503  0.8748024310052344  1.0000
  C   C8        1.0  0.40717955785896626  0.8750308338558517  0.12519756871071844  1.0000
  C   C9        1.0  0.783427309916266  0.17271538725163502  0.8707563723605214  1.0000
  C   C10       1.0  0.21657268954246942  0.8272846129453885  0.12924362735488462  1.0000
  C   C11       1.0  0.10738220119187233  0.15128288280376845  0.8556004181967032  1.0000
  C   C12       1.0  0.8926177982668632  0.8487171173932551  0.144399581518703  1.0000
  C   C13       1.0  0.1253086294927703  0.2151527121335375  0.7983651313885899  1.0000
  C   C14       1.0  0.8746913700939883  0.78484728808574  0.2016348688329041  1.0000
  C   C15       1.0  0.777344775996212  0.9897189981873965  0.6897142189083073  1.0000
  C   C16       1.0  0.22265522481064015  0.010281002010460265  0.3102857808076454  1.0000
  C   C17       1.0  0.6948285043893901  0.9934795305639971  0.6215641426251848  1.0000
  C   C18       1.0  0.30517149490366197  0.0065204689713486  0.37843585708867816  1.0000
  C   C19       1.0  0.6549884946997286  0.9201925603755144  0.5779489285998209  1.0000
  C   C20       1.0  0.34501150610712367  0.0798074398223424  0.42205107111613177  1.0000
  C   C21       1.0  0.6984437437176396  0.8380362297724918  0.600281240651171  1.0000
  C   C22       1.0  0.3015562570892126  0.16196377042536494  0.3997187590647816  1.0000
  C   C23       1.0  0.7824872608205201  0.8294448548527675  0.6654658317770151  1.0000
  C   C24       1.0  0.21751273998633222  0.17055514534508928  0.3345341679389376  1.0000
  C   C25       1.0  0.8194124344341304  0.9033923844557422  0.7084096437952626  1.0000
  C   C26       1.0  0.18058756485892183  0.09660761507960357  0.29159035591860033  1.0000
  C   C27       1.0  0.27161411207914343  0.9824798512096649  0.685201152814668  1.0000
  C   C28       1.0  0.7283858873795922  0.017520148987358528  0.3147988469007382  1.0000
  C   C29       1.0  0.19439955337993722  0.9899920299989491  0.6178573043301308  1.0000
  C   C30       1.0  0.8056004474269151  0.010007970198907822  0.3821426953858219  1.0000
  C   C31       1.0  0.15793518886110014  0.9176054320893102  0.5729347595677823  1.0000
  C   C32       1.0  0.8420648117800688  0.08239456744686884  0.4270652401466272  1.0000
  C   C33       1.0  0.2006446344891814  0.8357105139497704  0.5946745032997669  1.0000
  C   C34       1.0  0.7993553661519874  0.16428948558640866  0.40532549641464255  1.0000
  C   C35       1.0  0.28162420992360887  0.8249729458051616  0.6597820159617293  1.0000
  C   C36       1.0  0.7183757894974664  0.17502705375243824  0.3402179842582216  1.0000
  C   C37       1.0  0.3157732487151927  0.8979018840480731  0.7042810164288146  1.0000
  C   C38       1.0  0.6842267507435428  0.10209811614895038  0.2957189832865915  1.0000
  C   C39       1.0  0.450705180508766  0.4488439941870846  0.580613414698974  1.0000
  C   C40       1.0  0.5492948201324029  0.5511560053490944  0.4193865850154355  1.0000
  C   C41       1.0  0.28575452158859044  0.4989969165828186  0.5753844034956546  1.0000
  C   C42       1.0  0.7142454777044618  0.5010030829525272  0.42461559621820844  1.0000
  C   C43       1.0  0.10729424813687755  0.43643363798702844  0.5690577745694197  1.0000
  C   C44       1.0  0.892705751321858  0.563566362209995  0.4309422251459864  1.0000
  C   C45       1.0  0.10648319569256896  0.3727081084745184  0.6271767814249619  1.0000
  C   C46       1.0  0.8935168050766231  0.6272918910839148  0.3728232187955354  1.0000
  C   C47       1.0  0.2732779592193225  0.32376013145451515  0.6309607081067762  1.0000
  C   C48       1.0  0.7267220402394129  0.6762398687425083  0.36903929160862997  1.0000
  C   C49       1.0  0.6156307875040192  0.3434475281519189  0.645230591329613  1.0000
  C   C50       1.0  0.3843692117890329  0.6565524713834269  0.35476940838424986  1.0000
  C   C51       1.0  0.6297795468393821  0.2810822347833631  0.7034977501386244  1.0000
  C   C52       1.0  0.37022045261935344  0.7189177654136605  0.29650224957678173  1.0000
  C   C53       1.0  0.44072008589103095  0.50532713634478  0.8101590376638105  1.0000
  C   C54       1.0  0.5592799148781611  0.49467286321365317  0.1898409625566869  1.0000
  C   C55       1.0  0.3874031172163243  0.49925452711887813  0.8778490470760874  1.0000
  C   C56       1.0  0.6125968822424112  0.5007454730781452  0.12215095263931877  1.0000
  C   C57       1.0  0.3992861766530884  0.5715486322867878  0.9220901499817007  1.0000
  C   C58       1.0  0.6007138226399638  0.42845136724855787  0.07790984973216222  1.0000
  C   C59       1.0  0.46813893557956443  0.6548940007786794  0.9007502568709596  1.0000
  C   C60       1.0  0.531861063879171  0.34510599941834397  0.09924974284444658  1.0000
  C   C61       1.0  0.5266066981896352  0.6659595919840018  0.8360820323862238  1.0000
  C   C62       1.0  0.47339330139712343  0.3340404082352758  0.16391796783527027  1.0000
  C   C63       1.0  0.5121634244273194  0.5929005094934243  0.7924556279915833  1.0000
  C   C64       1.0  0.4878365751594392  0.40709949072585333  0.2075443722299107  1.0000
  C   C65       1.0  0.9428301658692728  0.521062059758988  0.8137233960009105  1.0000
  C   C66       1.0  0.0571698335518024  0.4789379397986119  0.18627660421904038  1.0000
  C   C67       1.0  0.8936338069364177  0.5166304332332456  0.8810766122328889  1.0000
  C   C68       1.0  0.10636619265034088  0.48336956698603195  0.11892338798860502  1.0000
  C   C69       1.0  0.911353524387575  0.5912662521077433  0.9236486428037624  1.0000
  C   C70       1.0  0.08864647507116069  0.4087337480892801  0.07635135691164381  1.0000
  C   C71       1.0  0.9834212397512067  0.672301344334026  0.8997187499937782  1.0000
  C   C72       1.0  0.016578759669868666  0.32769865522357394  0.10028125022617251  1.0000
  C   C73       1.0  0.040325303664029255  0.6798530750777787  0.8347069449314135  1.0000
  C   C74       1.0  0.9596746969771397  0.32014692445840043  0.165293054782996  1.0000
  C   C75       1.0  0.018360284856772553  0.6048424189739414  0.7924176567538269  1.0000
  C   C76       1.0  0.981639714729986  0.39515758124533623  0.20758234346766716  1.0000
  N   N1        1.0  0.9169005243184675  0.10760704763905234  0.8616400209167849  1.0000
  N   N2        1.0  0.08309947514026814  0.892392952557971  0.1383599787986213  1.0000
  N   N3        1.0  0.6527573258058225  0.7609292030218723  0.5560936366570906  1.0000
  N   N4        1.0  0.3472426734872297  0.2390707965134734  0.4439063630567724  1.0000
  N   N5        1.0  0.15653279124001013  0.759401695470333  0.548278570200963  1.0000
  N   N6        1.0  0.8434672096948652  0.24059830474977792  0.4517214300210775  1.0000
  N   N7        1.0  0.44546435644068305  0.3880190393713125  0.6391397132408667  1.0000
  N   N8        1.0  0.5545356442004857  0.6119809601648665  0.3608602864735427  1.0000
  N   N9        1.0  0.47597495756445113  0.7310049229696151  0.9457782074932429  1.0000
  N   N10       1.0  0.524025041728601  0.26899507656573063  0.054221792220619944  1.0000
  N   N11       1.0  0.9958431376562124  0.7508123675518249  0.9433075038810964  1.0000
  N   N12       1.0  0.004156861930546137  0.24918763266745267  0.05669249634039759  1.0000
  O   O1        1.0  0.09876758813356593  0.17361002862564756  0.7320015005001158  1.0000
  O   O2        1.0  0.9012324113251695  0.8263899715713758  0.2679984992152903  1.0000
  O   O3        1.0  0.8100828932037475  0.05825643412946209  0.7304620349342675  1.0000
  O   O4        1.0  0.1899171076031047  0.9417435660683947  0.2695379647816851  1.0000
  O   O5        1.0  0.704774489511876  0.689264487731137  0.5742121176466107  1.0000
  O   O6        1.0  0.2952255097811761  0.31073551180420866  0.42578788206725204  1.0000
  O   O7        1.0  0.5611194701159112  0.7683906751571684  0.5006148251242583  1.0000
  O   O8        1.0  0.4388805306909409  0.23160932504068826  0.4993851745916944  1.0000
  O   O9        1.0  0.30574667376217485  0.049396596824410235  0.7307726309714937  1.0000
  O   O10       1.0  0.6942533255308773  0.9506034027109352  0.26922736874236913  1.0000
  O   O11       1.0  0.20267692445105495  0.6873892750493851  0.5669586831823175  1.0000
  O   O12       1.0  0.7973230750076805  0.3126107251476383  0.43304131653308864  1.0000
  O   O13       1.0  0.07384355218708116  0.7696304602791864  0.49205986552690045  1.0000
  O   O14       1.0  0.9261564472716542  0.23036953991783696  0.5079401341885057  1.0000
  O   O15       1.0  0.6593292907339284  0.3244402046307009  0.7692934353577361  1.0000
  O   O16       1.0  0.340670708724807  0.6755597955663226  0.23070656435767  1.0000
  O   O17       1.0  0.5528790537306508  0.8034997299096122  0.9285405146342502  1.0000
  O   O18       1.0  0.4471209469105181  0.19650026962656691  0.07145948508015929  1.0000
  O   O19       1.0  0.40445426055972483  0.7216198842256584  0.00030307680563457034  1.0000
  O   O20       1.0  0.5955457387333273  0.2783801153096873  0.9996969229082283  1.0000
  O   O21       1.0  0.42554095087773935  0.4373182345775011  0.7690126760115218  1.0000
  O   O22       1.0  0.574459050057136  0.5626817656426099  0.2309873242105188  1.0000
  O   O23       1.0  0.0717919886400111  0.8220719383286718  0.923958517105519  1.0000
  O   O24       1.0  0.9282080108187244  0.17792806186835164  0.07604148260988706  1.0000
  O   O25       1.0  0.9283827953258706  0.7434106221469645  0.9985833055424163  1.0000
  O   O26       1.0  0.07161720560900468  0.2565893780731465  0.0014166946796243815  1.0000
  O   O27       1.0  0.9243121201380342  0.4522152687767858  0.7700581126759599  1.0000
  O   O28       1.0  0.07568788079684119  0.5477847314433252  0.22994188754608055  1.0000
  Cl  Cl1       1.0  0.6420016279349153  0.09485957230093882  0.594274419855593  1.0000
  Cl  Cl2       1.0  0.3579983716518434  0.9051404279183389  0.40572558036590106  1.0000
  Cl  Cl3       1.0  0.920859303281825  0.8928329918736352  0.7891333574685324  1.0000
  Cl  Cl4       1.0  0.07914069748736709  0.10716700768479813  0.2108666427519649  1.0000
  Cl  Cl5       1.0  0.1427577539521689  0.0915098708145828  0.5910065506164237  1.0000
  Cl  Cl6       1.0  0.8572422455065666  0.9084901293824407  0.40899344909898244  1.0000
  Cl  Cl7       1.0  0.40671952690452956  0.8856923053613628  0.7860547659381978  1.0000
  Cl  Cl8       1.0  0.5932804725165457  0.11430769419623699  0.21394523428175297  1.0000
  Cl  Cl9       1.0  0.304073268729745  0.39616876047479804  0.9043473235407764  1.0000
  Cl  Cl10      1.0  0.6959267306913303  0.6038312390828019  0.0956526766791745  1.0000
  Cl  Cl11      1.0  0.5833823939280777  0.6064392366591665  0.7124030939046486  1.0000
  Cl  Cl12      1.0  0.4166176070067976  0.3935607635609445  0.2875969063173919  1.0000
  Cl  Cl13      1.0  0.8082157145892559  0.41587199302703637  0.9105249655337626  1.0000
  Cl  Cl14      1.0  0.19178428634561942  0.5841280071930746  0.08947503468827793  1.0000
  Cl  Cl15      1.0  0.07611087012552284  0.6130919614551499  0.7105772052651197  1.0000
  Cl  Cl16      1.0  0.9238891294612358  0.3869080387641277  0.2894227949563743  1.0000
