data_image0
_chemical_formula_structural       H50C50N4O10S4Br2
_chemical_formula_sum              "H50 C50 N4 O10 S4 Br2"
_cell_length_a       8.462647258845132
_cell_length_b       11.779009633602902
_cell_length_c       13.375602099878723
_cell_angle_alpha    103.27195453264498
_cell_angle_beta     107.06597077938643
_cell_angle_gamma    92.54123978659266

_space_group_name_H-M_alt    "P 1"
_space_group_IT_number       1

loop_
  _space_group_symop_operation_xyz
  'x, y, z'

loop_
  _atom_site_type_symbol
  _atom_site_label
  _atom_site_symmetry_multiplicity
  _atom_site_fract_x
  _atom_site_fract_y
  _atom_site_fract_z
  _atom_site_occupancy
  H   H1        1.0  0.46469743004143815  0.353609069157954  0.8665761192966842  1.0000
  H   H2        1.0  0.5353025705175513  0.6463909303531488  0.13342388077037212  1.0000
  H   H3        1.0  0.3861625866723118  0.4458282991995778  0.7784914970140276  1.0000
  H   H4        1.0  0.6138374139375098  0.5541717011606848  0.22150850305070893  1.0000
  H   H5        1.0  0.25087570265832504  0.32287350116199454  0.7809863397625201  1.0000
  H   H6        1.0  0.7491242967181589  0.6771264983482739  0.2190136603028261  1.0000
  H   H7        1.0  0.034329703768447864  0.4488754448944918  0.7921004572205874  1.0000
  H   H8        1.0  0.9656702968413737  0.5511245554657707  0.2078995428441491  1.0000
  H   H9        1.0  0.15033473595344893  0.5915313162441417  0.8131790041504678  1.0000
  H   H10       1.0  0.8496652646055404  0.4084686832669611  0.1868209959165884  1.0000
  H   H11       1.0  0.04472010377220776  0.5685058435547508  0.9061423109583292  1.0000
  H   H12       1.0  0.9552798968376138  0.43149415680551173  0.09385768910640735  1.0000
  H   H13       1.0  0.6127615669448914  0.921100581134544  0.6987146790242118  1.0000
  H   H14       1.0  0.3872384336649303  0.0788994192257185  0.3012853210405248  1.0000
  H   H15       1.0  0.37688414440093704  0.6044406440425824  0.3639618506860871  1.0000
  H   H16       1.0  0.6231158561580523  0.3955593554685205  0.6360381493809691  1.0000
  H   H17       1.0  0.16979315667443598  0.25825354392802047  0.09347077867615693  1.0000
  H   H18       1.0  0.830206842702048  0.741746455582248  0.9065292213891892  1.0000
  H   H19       1.0  0.03332649243055118  0.12547936458616082  0.1705126053980404  1.0000
  H   H20       1.0  0.966673506996765  0.8745206357732673  0.829487394664986  1.0000
  H   H21       1.0  0.03732182766729368  0.18938213018240482  0.3637932491045101  1.0000
  H   H22       1.0  0.9626781717600226  0.8106178701770234  0.6362067509585163  1.0000
  H   H23       1.0  0.1719207131532225  0.3840954933147151  0.47494589214927635  1.0000
  H   H24       1.0  0.8280792874057666  0.6159045061963876  0.5250541079177798  1.0000
  H   H25       1.0  0.23088980572656329  0.9337511309247953  0.7927181938419607  1.0000
  H   H26       1.0  0.7691101948832584  0.06624886943546718  0.20728180622277584  1.0000
  H   H27       1.0  0.007295578019137298  0.05440773310106365  0.7311685866511396  1.0000
  H   H28       1.0  0.9927044225906844  0.9455922672591989  0.2688314134135971  1.0000
  H   H29       1.0  0.27606642010539395  0.17024813204016326  0.5360849205063177  1.0000
  H   H30       1.0  0.7239335804535953  0.8297518674709395  0.4639150795607385  1.0000
  H   H31       1.0  0.49364102345486616  0.046252395712466324  0.5934561733098094  1.0000
  H   H32       1.0  0.5063589771549555  0.9537476046477962  0.4065438267549272  1.0000
  H   H33       1.0  0.9802714675668226  0.13055660391716625  0.9306745748122177  1.0000
  H   H34       1.0  0.01972853180966136  0.8694433955931021  0.06932542525312838  1.0000
  H   H35       1.0  0.8500600548791547  0.19644550235982433  0.004081523180642796  1.0000
  H   H36       1.0  0.14993994529335392  0.8035544969256653  0.9959184760778323  1.0000
  H   H37       1.0  0.8404609607742167  0.22641343470744654  0.7785301544466436  1.0000
  H   H38       1.0  0.15953903983560505  0.7735865656528159  0.2214698456180931  1.0000
  H   H39       1.0  0.9405216046481882  0.3316319597766549  0.9029697473144805  1.0000
  H   H40       1.0  0.05947839591080115  0.6683680397344478  0.09703025275257565  1.0000
  H   H41       1.0  0.719372648728846  0.2958469946781567  0.8570031433270079  1.0000
  H   H42       1.0  0.28062735183014337  0.704153004832946  0.1429968567400483  1.0000
  H   H43       1.0  0.63360268383533  0.7624760708253264  0.01801471351550842  1.0000
  H   H44       1.0  0.3663973167744917  0.23752392953493612  0.9819852865492282  1.0000
  H   H45       1.0  0.4215959978532569  0.7718320911793176  0.006450844779947945  1.0000
  H   H46       1.0  0.5784040015740595  0.22816790918011068  0.9935491552830785  1.0000
  H   H47       1.0  0.5683825740448012  0.9028999597042562  0.05029773670746498  1.0000
  H   H48       1.0  0.43161742651418816  0.09710003980684666  0.9497022633595913  1.0000
  H   H49       1.0  0.29103273774678745  0.44362396086106215  0.1169385817543394  1.0000
  H   H50       1.0  0.7089672628630344  0.5563760394992004  0.8830614183103973  1.0000
  C   C1        1.0  0.35445182253021423  0.39170199928011673  0.8281351972844619  1.0000
  C   C2        1.0  0.6455481768462699  0.6082980002301517  0.17186480278088428  1.0000
  C   C3        1.0  0.11115842237268252  0.5268057588639014  0.8512294076036779  1.0000
  C   C4        1.0  0.888841578186307  0.4731942406472016  0.14877059246337845  1.0000
  C   C5        1.0  0.3419978822062351  0.6145643401105316  0.5113231676557619  1.0000
  C   C6        1.0  0.6580021183527541  0.38543565940057123  0.48867683241129434  1.0000
  C   C7        1.0  0.4307627250142755  0.734969750396326  0.5539288544778429  1.0000
  C   C8        1.0  0.5692372755955462  0.26503024996393665  0.4460711455868937  1.0000
  C   C9        1.0  0.5069345941285528  0.8977666607968184  0.7247750575286548  1.0000
  C   C10       1.0  0.4930654052479312  0.10223333871345004  0.27522494253669133  1.0000
  C   C11       1.0  0.563778476151644  0.898956806371034  0.8436240436513803  1.0000
  C   C12       1.0  0.4362215232756723  0.10104319398839415  0.15637595641164612  1.0000
  C   C13       1.0  0.4927287670155932  0.8159024265189416  0.8797622560036756  1.0000
  C   C14       1.0  0.5072712324117231  0.18409757384048658  0.1202377440593509  1.0000
  C   C15       1.0  0.3733971323825519  0.7009539908943431  0.707002619891232  1.0000
  C   C16       1.0  0.6266028669939321  0.2990460086159254  0.2929973801741142  1.0000
  C   C17       1.0  0.32369341836504933  0.5540183745963754  0.4080102446589027  1.0000
  C   C18       1.0  0.6763065822447722  0.44598162576388706  0.591989755405834  1.0000
  C   C19       1.0  0.24785949577967395  0.43704297460146463  0.34901044540593223  1.0000
  C   C20       1.0  0.7521405035968102  0.5629570249088037  0.6509895546594139  1.0000
  C   C21       1.0  0.2468437711672654  0.39863929649928453  0.23934434281948774  1.0000
  C   C22       1.0  0.7531562294425562  0.6013607038609781  0.7606556572452489  1.0000
  C   C23       1.0  0.17031933628885518  0.28611553352524965  0.1770340402713909  1.0000
  C   C24       1.0  0.8296806630876288  0.7138844659850189  0.8229659597939553  1.0000
  C   C25       1.0  0.0947455390468604  0.21172847637312586  0.22114464639172648  1.0000
  C   C26       1.0  0.9052544603804559  0.7882715239863024  0.7788553536713  1.0000
  C   C27       1.0  0.09593573474786465  0.24741236030087052  0.32886895694984153  1.0000
  C   C28       1.0  0.9040642646794517  0.7525876400585576  0.6711310431131849  1.0000
  C   C29       1.0  0.17183171373475165  0.35818921631265555  0.3912543966838804  1.0000
  C   C30       1.0  0.8281682856417324  0.6418107831976129  0.6087456033814658  1.0000
  C   C31       1.0  0.37545663791040723  0.9787773259719885  0.6947270637346896  1.0000
  C   C32       1.0  0.6245433626994145  0.021222674388273986  0.305272936330047  1.0000
  C   C33       1.0  0.2392413811581874  0.9830369584470244  0.734265223381165  1.0000
  C   C34       1.0  0.7607586182691289  0.01696304191240355  0.26573477668186135  1.0000
  C   C35       1.0  0.11379633522223319  0.05196538240091292  0.7011186533898383  1.0000
  C   C36       1.0  0.8862036653367562  0.9480346171101899  0.29888134667721794  1.0000
  C   C37       1.0  0.12764679200752446  0.11795835991405014  0.6291217631893097  1.0000
  C   C38       1.0  0.8723532086022971  0.8820416404462125  0.3708782368754269  1.0000
  C   C39       1.0  0.2638059099160742  0.11729211185530977  0.5907099326965048  1.0000
  C   C40       1.0  0.7361940895112421  0.8827078885041184  0.4092900673665216  1.0000
  C   C41       1.0  0.38726098398033143  0.047002474785838036  0.6238002380901048  1.0000
  C   C42       1.0  0.6127390153961525  0.9529975247244303  0.37619976197524135  1.0000
  C   C43       1.0  0.697847291024247  0.9904038371517835  0.9152062251460413  1.0000
  C   C44       1.0  0.3021527095855747  0.009596163208478866  0.08479377491869533  1.0000
  C   C45       1.0  0.8599366006769175  0.16564962668821923  0.9223785320747153  1.0000
  C   C46       1.0  0.14006339988207192  0.8343503728228835  0.07762146799234104  1.0000
  C   C47       1.0  0.8382953486773624  0.26022103366079696  0.8616805958203154  1.0000
  C   C48       1.0  0.16170465188162672  0.7397789658503058  0.1383194042467408  1.0000
  C   C49       1.0  0.5306077734282195  0.8150946958921242  0.9957945108662096  1.0000
  C   C50       1.0  0.46939222718160234  0.1849053044681383  0.004205489198526994  1.0000
  N   N1        1.0  0.44126789717310494  0.7760403119368016  0.6624843410264097  1.0000
  N   N2        1.0  0.5587321022542113  0.22395968842262656  0.33751565903661673  1.0000
  N   N3        1.0  0.38355241079081304  0.7189039485517175  0.8084659467594767  1.0000
  N   N4        1.0  0.6164475898190085  0.281096051808545  0.19153405330525985  1.0000
  O   O1        1.0  0.23519921576180985  0.402768881806754  0.9918181063995938  1.0000
  O   O2        1.0  0.7648007847971796  0.5972311177043488  0.008181893667462622  1.0000
  O   O3        1.0  0.4878180408175389  0.7933995708690359  0.504562381370951  1.0000
  O   O4        1.0  0.5121819597414505  0.20660042864206699  0.49543761869610525  1.0000
  O   O5        1.0  0.31772313332711366  0.47401090397052476  0.198680149903723  1.0000
  O   O6        1.0  0.6822768660493704  0.5259890955397437  0.8013198501616232  1.0000
  O   O7        1.0  0.7777429935837691  0.9977963433366984  0.01029517776045428  1.0000
  O   O8        1.0  0.22225700584354724  0.0022036570227297343  0.9897048223025721  1.0000
  O   O9        1.0  0.7285429783537174  0.07005293071651211  0.8613698302951459  1.0000
  O   O10       1.0  0.2714570210227666  0.9299470687937564  0.13863016977020015  1.0000
  S   S1        1.0  0.29551509269552506  0.48523710508016543  0.9336807151064053  1.0000
  S   S2        1.0  0.7044849067317911  0.5147628952792627  0.06631928495662112  1.0000
  S   S3        1.0  0.2777909918812522  0.5698255414950537  0.6110434750106336  1.0000
  S   S4        1.0  0.7222090074952318  0.43017445801521464  0.38895652505471257  1.0000
  Br  Br1       1.0  0.9592557146706093  0.2157881662664336  0.5850735404318781  1.0000
  Br  Br2       1.0  0.04074428593921234  0.7842118340938289  0.4149264596328586  1.0000
