data_image0
_chemical_formula_structural       H48C64O14
_chemical_formula_sum              "H48 C64 O14"
_cell_length_a       12.436180437857272
_cell_length_b       11.249858319598614
_cell_length_c       9.88016251841927
_cell_angle_alpha    96.73252711057224
_cell_angle_beta     110.22887551876806
_cell_angle_gamma    106.22487671678606

_space_group_name_H-M_alt    "P 1"
_space_group_IT_number       1

loop_
  _space_group_symop_operation_xyz
  'x, y, z'

loop_
  _atom_site_type_symbol
  _atom_site_label
  _atom_site_symmetry_multiplicity
  _atom_site_fract_x
  _atom_site_fract_y
  _atom_site_fract_z
  _atom_site_occupancy
  H   H1        1.0  0.6481781061101294  0.21935432444442454  0.6213848203728696  1.0000
  H   H2        1.0  0.35182189409422693  0.7806456754839606  0.37861518001835043  1.0000
  H   H3        1.0  0.540421485524572  0.921605405454704  0.3850365879896027  1.0000
  H   H4        1.0  0.45957851382104487  0.07839459446817092  0.6149634120342948  1.0000
  H   H5        1.0  0.4765817642826436  0.7652516526242437  0.14641190391052794  1.0000
  H   H6        1.0  0.5234182362300568  0.23474834825711902  0.8535880967472982  1.0000
  H   H7        1.0  0.5545720095274664  0.827710650442031  0.9576542994185268  1.0000
  H   H8        1.0  0.44542799067240163  0.1722893494912093  0.042345699959297364  1.0000
  H   H9        1.0  0.693376557755646  0.052600149336841075  0.0005183287552450778  1.0000
  H   H10       1.0  0.3066234424487104  0.9473998505915442  0.9994816716359749  1.0000
  H   H11       1.0  0.984798868972941  0.6055819461348918  0.6249040981091678  1.0000
  H   H12       1.0  0.015201131231415468  0.39441805379349343  0.37509590228205225  1.0000
  H   H13       1.0  0.9017713235293763  0.8676259605582954  0.6472572709498219  1.0000
  H   H14       1.0  0.09822867667049169  0.132374039374945  0.35274272842800236  1.0000
  H   H15       1.0  0.785807180343952  0.010139247694623588  0.6756380369890106  1.0000
  H   H16       1.0  0.21419281985591598  0.9898607522386169  0.3243619623888136  1.0000
  H   H17       1.0  0.5910986034971855  0.924530365774517  0.7054939917078533  1.0000
  H   H18       1.0  0.40890139584843144  0.07546963414835799  0.29450600831604434  1.0000
  H   H19       1.0  0.5100187967816799  0.6936220810958559  0.7075758409047175  1.0000
  H   H20       1.0  0.48998120342267637  0.3063779188325294  0.2924241594865026  1.0000
  H   H21       1.0  0.9302822825387579  0.4420487409911083  0.6164476354184544  1.0000
  H   H22       1.0  0.06971771766559852  0.557951258937277  0.3835523649727657  1.0000
  H   H23       1.0  0.8216706459157976  0.4407165577594243  0.8921544198306709  1.0000
  H   H24       1.0  0.1783293545969028  0.5592834431219385  0.10784558082715513  1.0000
  H   H25       1.0  0.8801001108782602  0.34834238562545894  0.10697352739080328  1.0000
  H   H26       1.0  0.11989988932609615  0.6516576143029265  0.8930264730004167  1.0000
  H   H27       1.0  0.988133816525855  0.19157595506527628  0.11026950095670614  1.0000
  H   H28       1.0  0.011866182815273477  0.8084240448624538  0.8897304980537958  1.0000
  H   H29       1.0  0.09512190494541138  0.08608840568412626  0.0025457269240155293  1.0000
  H   H30       1.0  0.9048780944002055  0.9139115942387486  0.9974542730998821  1.0000
  H   H31       1.0  0.1549243117570806  0.03142597704892055  0.7944717847015318  1.0000
  H   H32       1.0  0.8450756875885362  0.9685740228739543  0.20552821532236584  1.0000
  H   H33       1.0  0.09497784135054234  0.12243762751401445  0.5732971685045518  1.0000
  H   H34       1.0  0.9050221579950746  0.8775623724088605  0.42670283151934596  1.0000
  H   H35       1.0  0.9774725022963007  0.26522565960501376  0.5579105398070682  1.0000
  H   H36       1.0  0.022527497908055798  0.7347743403233716  0.4420894605841518  1.0000
  H   H37       1.0  0.7973471525491287  0.5688871205900846  0.10972205262186716  1.0000
  H   H38       1.0  0.20265284765522776  0.4311128793383008  0.8902779477693529  1.0000
  H   H39       1.0  0.6760578934366077  0.6177335029975597  0.010068231144303297  1.0000
  H   H40       1.0  0.32394210676326035  0.3822664969356808  0.989931768233521  1.0000
  H   H41       1.0  0.6689411731765958  0.4561428392677282  0.9548634516422492  1.0000
  H   H42       1.0  0.3310588270277606  0.543857160660657  0.04513654874897087  1.0000
  H   H43       1.0  0.753017030571233  0.6500713694175333  0.34301991981417607  1.0000
  H   H44       1.0  0.2469829687743839  0.3499286305053416  0.6569800802097214  1.0000
  H   H45       1.0  0.6187589107246807  0.670968494042304  0.23093968906982562  1.0000
  H   H46       1.0  0.3812410894796757  0.3290315058860813  0.7690603113213943  1.0000
  H   H47       1.0  0.6086791042989563  0.5611958731360017  0.34634393722525303  1.0000
  H   H48       1.0  0.3913208959009117  0.4388041267972387  0.6536560621525712  1.0000
  C   C1        1.0  0.8097957129698373  0.3211138216911357  0.3622898592831358  1.0000
  C   C2        1.0  0.19020428723451918  0.6788861782372496  0.6377101411080843  1.0000
  C   C3        1.0  0.7751369988733825  0.29036800679470753  0.48117896394697324  1.0000
  C   C4        1.0  0.22486300132648562  0.7096319931385329  0.5188210354308509  1.0000
  C   C5        1.0  0.6914315471399708  0.1711619056299219  0.4600794029496187  1.0000
  C   C6        1.0  0.30856845336824135  0.8288380952562959  0.5399205966948116  1.0000
  C   C7        1.0  0.5723090012082641  0.9487343461813568  0.2996864195837523  1.0000
  C   C8        1.0  0.42769099899160395  0.05126565375188368  0.7003135797940718  1.0000
  C   C9        1.0  0.5820356500339031  0.8978557264629254  0.05975789237989161  1.0000
  C   C10       1.0  0.41796435017045347  0.10214427346545989  0.9402421080113283  1.0000
  C   C11       1.0  0.6584491809717556  0.021447376811056344  0.08229983145913215  1.0000
  C   C12       1.0  0.34155081954094485  0.9785526240703063  0.917700169198694  1.0000
  C   C13       1.0  0.6909115264348926  0.10872967901893742  0.21449508602117912  1.0000
  C   C14       1.0  0.30908847376497534  0.891270320914303  0.7855049133566451  1.0000
  C   C15       1.0  0.6501328489716328  0.0747220898298552  0.3253281724701253  1.0000
  C   C16       1.0  0.3498671515365792  0.9252779110563626  0.674671827174305  1.0000
  C   C17       1.0  0.6687378653693989  0.4439508111227981  0.6580988479572859  1.0000
  C   C18       1.0  0.33126213483495753  0.5560491888055872  0.34190115243393415  1.0000
  C   C19       1.0  0.7833575447362118  0.4858906283032915  0.6437679155461391  1.0000
  C   C20       1.0  0.21664245546814473  0.514109371625094  0.356232084845081  1.0000
  C   C21       1.0  0.8325679046823564  0.6124015251028989  0.6422768880059779  1.0000
  C   C22       1.0  0.16743209552200006  0.3875984748254864  0.35772311238524207  1.0000
  C   C23       1.0  0.8153157336308268  0.8304839958625673  0.6582363997824241  1.0000
  C   C24       1.0  0.18468426571479016  0.16951600406030778  0.34176360024147356  1.0000
  C   C25       1.0  0.751047036463061  0.9099157339719305  0.6750354967516407  1.0000
  C   C26       1.0  0.24895296288255578  0.09008426595094444  0.32496450327225707  1.0000
  C   C27       1.0  0.6408799860792743  0.861390834384154  0.6922957748973648  1.0000
  C   C28       1.0  0.35912001412508215  0.13860916554423133  0.3077042254938552  1.0000
  C   C29       1.0  0.5940963281078134  0.7336486349566508  0.6915988224012344  1.0000
  C   C30       1.0  0.4059036720965431  0.2663513649717346  0.3084011779899856  1.0000
  C   C31       1.0  0.6592495419984793  0.6547546280214649  0.6732328706058932  1.0000
  C   C32       1.0  0.34075045820587707  0.3452453719069205  0.3267671297853268  1.0000
  C   C33       1.0  0.7701578032506149  0.7006682230389408  0.6572886656862817  1.0000
  C   C34       1.0  0.22984219609500192  0.2993317768839341  0.34271133433761575  1.0000
  C   C35       1.0  0.8460291621535412  0.3903450407180344  0.6282863976280493  1.0000
  C   C36       1.0  0.1539708371920756  0.6096549592048406  0.3717136023958484  1.0000
  C   C37       1.0  0.8890785796395766  0.3369477455868449  0.7646278046952406  1.0000
  C   C38       1.0  0.11092142056477974  0.6630522543415404  0.23537219569597934  1.0000
  C   C39       1.0  0.8676290451804348  0.37194043590337955  0.8889574020127615  1.0000
  C   C40       1.0  0.1323709550239216  0.6280595640250058  0.11104259837845859  1.0000
  C   C41       1.0  0.9028273283115378  0.32059930389817004  0.013985649169272292  1.0000
  C   C42       1.0  0.09717267219667444  0.6794006969880478  0.9860143504751578  1.0000
  C   C43       1.0  0.9629552256883751  0.23470990145877477  0.016175332646215998  1.0000
  C   C44       1.0  0.03704477451598133  0.7652900984696106  0.983824667745004  1.0000
  C   C45       1.0  0.9961769542976782  0.20323110387679838  0.8967766856359455  1.0000
  C   C46       1.0  0.0038230459021898052  0.7967688960564422  0.10322331374187875  1.0000
  C   C47       1.0  0.06677154329906247  0.12269412149706622  0.9031919127487557  1.0000
  C   C48       1.0  0.933228456905294  0.8773058784313189  0.09680808764246418  1.0000
  C   C49       1.0  0.10005802835705456  0.09252369840216504  0.78785553100286  1.0000
  C   C50       1.0  0.8999419709840739  0.9074763015255651  0.21214446800764175  1.0000
  C   C51       1.0  0.06576453319941727  0.14403334354263017  0.6624863956441676  1.0000
  C   C52       1.0  0.9342354670049391  0.8559666563857551  0.3375136047470525  1.0000
  C   C53       1.0  0.9981252330387804  0.22365150190235186  0.6534432042098404  1.0000
  C   C54       1.0  0.0018747671610875633  0.7763484980308886  0.3465567951679838  1.0000
  C   C55       1.0  0.9594856785128772  0.25482925155300273  0.7684307204738569  1.0000
  C   C56       1.0  0.04051432168699083  0.7451707483802377  0.23156927890396728  1.0000
  C   C57       1.0  0.5382799733365058  0.861841368277862  0.1675290094158554  1.0000
  C   C58       1.0  0.4617200268678507  0.1381586316505234  0.8324709909753646  1.0000
  C   C59       1.0  0.697600348076266  0.5362333179240624  0.048784893271259386  1.0000
  C   C60       1.0  0.302399652123602  0.4637666820091782  0.9512151061065649  1.0000
  C   C61       1.0  0.6390318485408335  0.49590589567771093  0.15375809451803976  1.0000
  C   C62       1.0  0.36096815165903456  0.5040941042555295  0.8462419048597843  1.0000
  C   C63       1.0  0.6552145494012366  0.5994263357418307  0.27705299805681693  1.0000
  C   C64       1.0  0.34478545079863143  0.40057366419140983  0.7229470013210072  1.0000
  O   O1        1.0  0.7647423986783862  0.23006655609320392  0.23197865423664665  1.0000
  O   O2        1.0  0.23525760097557474  0.7699334447826485  0.768021346053857  1.0000
  O   O3        1.0  0.8832676083383416  0.42497268894264595  0.3673401509602184  1.0000
  O   O4        1.0  0.1167323921743589  0.5750273119387167  0.6326598496976076  1.0000
  O   O5        1.0  0.6480274909550442  0.13828133649436675  0.5609444353655727  1.0000
  O   O6        1.0  0.3519725092448239  0.8617186634388737  0.43905556401225154  1.0000
  O   O7        1.0  0.6101235088190123  0.528940677611475  0.671387625975051  1.0000
  O   O8        1.0  0.38987649052211615  0.4710593223162551  0.32861237303545077  1.0000
  O   O9        1.0  0.6138208975576361  0.3341006137490844  0.662789939226952  1.0000
  O   O10       1.0  0.3861791026467203  0.6658993861793009  0.3372100611642681  1.0000
  O   O11       1.0  0.9373377530201819  0.6637479089983005  0.6281521480664543  1.0000
  O   O12       1.0  0.06266224718417455  0.33625209093008485  0.3718478523247657  1.0000
  O   O13       1.0  0.5818694388334551  0.3831161278832963  0.13963589738215795  1.0000
  O   O14       1.0  0.4181305613709014  0.6168838720450892  0.8603641030090621  1.0000
