data_image0
_chemical_formula_structural       H70C62N4O16F2
_chemical_formula_sum              "H70 C62 N4 O16 F2"
_cell_length_a       7.775735098370095
_cell_length_b       13.867893333582883
_cell_length_c       13.481440557271636
_cell_angle_alpha    90.0
_cell_angle_beta     100.83388133438748
_cell_angle_gamma    90.0

_space_group_name_H-M_alt    "P 1"
_space_group_IT_number       1

loop_
  _space_group_symop_operation_xyz
  'x, y, z'

loop_
  _atom_site_type_symbol
  _atom_site_label
  _atom_site_symmetry_multiplicity
  _atom_site_fract_x
  _atom_site_fract_y
  _atom_site_fract_z
  _atom_site_occupancy
  H   H1        1.0  0.691773374561243  0.8417856677430889  0.8970703218365195  1.0000
  H   H2        1.0  0.3082266249357835  0.34178566751172307  0.10292967802135343  1.0000
  H   H3        1.0  0.9928845855186835  0.6194787545124909  0.07465118269703472  1.0000
  H   H4        1.0  0.007115413978342928  0.11947875428112494  0.9253488171608383  1.0000
  H   H5        1.0  0.21730292654527208  0.9161676156848171  0.29976951512501515  1.0000
  H   H6        1.0  0.782697074260737  0.41616761545345116  0.7002304848932746  1.0000
  H   H7        1.0  0.8617600010411556  0.9413899599577544  0.36081719280059893  1.0000
  H   H8        1.0  0.13823999842319987  0.44138995972638845  0.6391828077952616  1.0000
  H   H9        1.0  0.9664138042679958  0.8297302829792658  0.350694063282366  1.0000
  H   H10       1.0  0.03358619522903066  0.3297302827478999  0.6493059365755068  1.0000
  H   H11       1.0  0.2069032127859813  0.09657585819157581  0.2802652724058337  1.0000
  H   H12       1.0  0.7930967880200278  0.5965758584229417  0.7197347276124559  1.0000
  H   H13       1.0  0.007158264286865515  0.0989066181146945  0.3245091374320268  1.0000
  H   H14       1.0  0.992841735210161  0.5989066176249703  0.6754908624258461  1.0000
  H   H15       1.0  0.3589393152216486  0.024286428507810317  0.4424688343021477  1.0000
  H   H16       1.0  0.6410606855843605  0.5242864287391763  0.557531165716142  1.0000
  H   H17       1.0  0.25845036994999065  0.13604122880231154  0.461836473822545  1.0000
  H   H18       1.0  0.7415496308560184  0.6360412283125875  0.5381635261957446  1.0000
  H   H19       1.0  0.005079449981327055  0.8870283066146054  0.5296414235330742  1.0000
  H   H20       1.0  0.9949205495156995  0.3870283063832395  0.4703585763247987  1.0000
  H   H21       1.0  0.20700530975037892  0.8708853002750722  0.48840200847278775  1.0000
  H   H22       1.0  0.7929946897466476  0.3708853000437061  0.5115979913850851  1.0000
  H   H23       1.0  0.35416560869738445  0.9908435715123807  0.6209937720740148  1.0000
  H   H24       1.0  0.6458343907996422  0.4908435712810148  0.37900622778385795  1.0000
  H   H25       1.0  0.14843049119699714  0.9742009925388972  0.6567149173162042  1.0000
  H   H26       1.0  0.851569509609012  0.47420099302862123  0.3432850827020855  1.0000
  H   H27       1.0  0.09626040253567257  0.149077867147531  0.657351530765964  1.0000
  H   H28       1.0  0.9037395982703366  0.6490778673788969  0.34264846925232567  1.0000
  H   H29       1.0  0.2846747075789278  0.1719627720401479  0.6057968560324122  1.0000
  H   H30       1.0  0.7153252919180987  0.6719627722715138  0.3942031438254607  1.0000
  H   H31       1.0  0.27955165925300507  0.09766791158683272  0.8179507637580178  1.0000
  H   H32       1.0  0.7204483402440214  0.5976679110971087  0.18204923609985507  1.0000
  H   H33       1.0  0.46872633979531053  0.08915783819924708  0.7605379007474331  1.0000
  H   H34       1.0  0.5312736610106986  0.5891578384306131  0.23946209927085652  1.0000
  H   H35       1.0  0.449460667998048  0.545311295529428  0.8662899693443862  1.0000
  H   H36       1.0  0.5505393314989785  0.04531129529806204  0.13371003051348673  1.0000
  H   H37       1.0  0.4549682479824032  0.5428835778371907  0.7341449516933329  1.0000
  H   H38       1.0  0.5450317528236059  0.04288357760582466  0.2658550483249567  1.0000
  H   H39       1.0  0.6501715895792253  0.5196593827664032  0.8238631528738586  1.0000
  H   H40       1.0  0.34982840991780123  0.019659382535037333  0.1761368469840143  1.0000
  H   H41       1.0  0.5385691496463922  0.11194383261086985  0.9332242221924132  1.0000
  H   H42       1.0  0.4614308511596168  0.6119438328422359  0.06677577782587647  1.0000
  H   H43       1.0  0.7334898487096675  0.1705980954057978  0.08597678763308053  1.0000
  H   H44       1.0  0.26651015078735896  0.6705980949160737  0.9140232122247923  1.0000
  H   H45       1.0  0.6741469787064764  0.46187658038073115  0.974657821670081  1.0000
  H   H46       1.0  0.32585302079054995  0.961876580612097  0.025342178187791907  1.0000
  H   H47       1.0  0.010757420433288768  0.3281663119645743  0.2679201258950905  1.0000
  H   H48       1.0  0.9892425790637377  0.8281663121959403  0.7320798739627824  1.0000
  H   H49       1.0  0.9602664236790842  0.22508539508599937  0.18742675762841127  1.0000
  H   H50       1.0  0.0397335758179422  0.7250853945962753  0.8125732422294616  1.0000
  H   H51       1.0  0.8029600226736524  0.27025820431744674  0.25485660864657755  1.0000
  H   H52       1.0  0.19703997682337412  0.7702582038277227  0.7451433912112952  1.0000
  H   H53       1.0  0.10538326194940308  0.7369265326876925  0.2136333348819539  1.0000
  H   H54       1.0  0.8946167388239349  0.23692653245632658  0.7863666658743235  1.0000
  H   H55       1.0  0.4301944290818579  0.7544780983181094  0.35276551292298136  1.0000
  H   H56       1.0  0.5698055704151685  0.2544780980867434  0.6472344869348915  1.0000
  H   H57       1.0  0.6322851446326722  0.891915219022266  0.39882130241701735  1.0000
  H   H58       1.0  0.3677148548643543  0.3919152187909001  0.6011786974408554  1.0000
  H   H59       1.0  0.7198973483279071  0.9429130132068627  0.5778173947315652  1.0000
  H   H60       1.0  0.28010265116911937  0.44291301297549673  0.42218260512630773  1.0000
  H   H61       1.0  0.4138930860686906  0.7146879768680306  0.6704423862845533  1.0000
  H   H62       1.0  0.5861069147373185  0.21468797735775474  0.3295576137337363  1.0000
  H   H63       1.0  0.3340095064625142  0.5990481012629537  0.6132372159258844  1.0000
  H   H64       1.0  0.6659904943108239  0.09904810175267784  0.38676278483039295  1.0000
  H   H65       1.0  0.6882235189098926  0.9168591129273563  0.7442830689705258  1.0000
  H   H66       1.0  0.3117764805871338  0.4168591126959903  0.25571693088734715  1.0000
  H   H67       1.0  0.19058850860767768  0.5469627590537789  0.2828194137891688  1.0000
  H   H68       1.0  0.8094114921983314  0.04696275882241286  0.717180586229121  1.0000
  H   H69       1.0  0.06737095442066998  0.4839452473828684  0.1980891246435909  1.0000
  H   H70       1.0  0.9326290463853392  0.9839452468931442  0.8019108753746987  1.0000
  C   C1        1.0  0.783345562329791  0.8216781760504083  0.9651126907783247  1.0000
  C   C2        1.0  0.21665443713456442  0.32167817581904234  0.03488730981753583  1.0000
  C   C3        1.0  0.9545626706937452  0.6950223994483101  0.06929044136216266  1.0000
  C   C4        1.0  0.045437330112263905  0.19502239921694417  0.9307095586561271  1.0000
  C   C5        1.0  0.8505707674454305  0.8853323799562249  0.04257980574019105  1.0000
  C   C6        1.0  0.1494292333279075  0.385332379724859  0.9574201950160862  1.0000
  C   C7        1.0  0.9628272617789123  0.8571247963968167  0.1318189546279232  1.0000
  C   C8        1.0  0.03717273771811423  0.35712479616545073  0.8681810452299497  1.0000
  C   C9        1.0  0.9915271476381423  0.9446006653568344  0.18981769821760477  1.0000
  C   C10       1.0  0.008472851858884184  0.4446006658465585  0.810182301640268  1.0000
  C   C11       1.0  0.09193810465018634  0.9549990587199267  0.2953922334463365  1.0000
  C   C12       1.0  0.9080618948468402  0.45499905920965084  0.7046077664115364  1.0000
  C   C13       1.0  0.990205458805891  0.9062773968389699  0.36948284327533987  1.0000
  C   C14       1.0  0.009794540691135377  0.406277396607604  0.630517156582533  1.0000
  C   C15       1.0  0.13096389833811273  0.05919243682183128  0.3296032054353218  1.0000
  C   C16       1.0  0.8690361011589138  0.5591924370531972  0.6703967944225512  1.0000
  C   C17       1.0  0.2300855258021132  0.06108255375376098  0.4383670222301759  1.0000
  C   C18       1.0  0.7699144736949133  0.561082553985127  0.5616329776276969  1.0000
  C   C19       1.0  0.08703469390656425  0.915860335415385  0.47824441998268086  1.0000
  C   C20       1.0  0.9129653068994449  0.41586033518401894  0.5217555800356088  1.0000
  C   C21       1.0  0.21936230300657994  0.020955577967725732  0.6120832463162098  1.0000
  C   C22       1.0  0.7806376964904466  0.5209555774780016  0.387916753541663  1.0000
  C   C23       1.0  0.22872877794792731  0.12291387011696996  0.6551222674398273  1.0000
  C   C24       1.0  0.7712712215490991  0.6229138696272458  0.3448777324180457  1.0000
  C   C25       1.0  0.34430990253889227  0.12784572302027822  0.7590107906286596  1.0000
  C   C26       1.0  0.6556900982671168  0.6278457232516442  0.24098920938963006  1.0000
  C   C27       1.0  0.5322287055097046  0.3533461825909503  0.8772223974604587  1.0000
  C   C28       1.0  0.46777129398732187  0.8533461821012261  0.12277760239741413  1.0000
  C   C29       1.0  0.5076551171949114  0.510196629712036  0.8074974155373493  1.0000
  C   C30       1.0  0.4923448836110977  0.010196630201760188  0.1925025844809404  1.0000
  C   C31       1.0  0.49079781869703804  0.253243415962492  0.8662047358548618  1.0000
  C   C32       1.0  0.5092021821089711  0.7532434161938579  0.13379526416342782  1.0000
  C   C33       1.0  0.5642124788078247  0.18888645282961963  0.9423596891216274  1.0000
  C   C34       1.0  0.43578752068920174  0.6888864530609856  0.05764031073624551  1.0000
  C   C35       1.0  0.6738525622108796  0.2225520824079357  0.029167614280262665  1.0000
  C   C36       1.0  0.3261474372861468  0.7225520819182116  0.9708323855776102  1.0000
  C   C37       1.0  0.6400670239134084  0.38602693655251175  0.9640416789035726  1.0000
  C   C38       1.0  0.359932975550947  0.8860269360627876  0.03595832169228791  1.0000
  C   C39       1.0  0.7123223828623784  0.32110344324731865  0.04135475889373468  1.0000
  C   C40       1.0  0.28767761791095964  0.8211034434786847  0.9586452418625426  1.0000
  C   C41       1.0  0.832582185562071  0.35882622113551893  0.12973551501750813  1.0000
  C   C42       1.0  0.16741781524393812  0.8588262213668848  0.8702644850007816  1.0000
  C   C43       1.0  0.9078779164188103  0.2914473794092688  0.2146567523068512  1.0000
  C   C44       1.0  0.0921220843871988  0.7914473789195446  0.7853432477114385  1.0000
  C   C45       1.0  0.01688142057741289  0.7606272817556177  0.14546775789460276  1.0000
  C   C46       1.0  0.9831185789196135  0.26062728152425174  0.8545322419632703  1.0000
  C   C47       1.0  0.8394774182782808  0.7273375283017146  0.9828196139722659  1.0000
  C   C48       1.0  0.16052258118607457  0.22733752879143873  0.01718038662359461  1.0000
  C   C49       1.0  0.2952051505243632  0.6405226162570348  0.47557571410497695  1.0000
  C   C50       1.0  0.7047948489726632  0.14052261602566885  0.524424285752896  1.0000
  C   C51       1.0  0.47021810333157155  0.7759206103743493  0.4312459828164689  1.0000
  C   C52       1.0  0.5297818974744376  0.2759206101429833  0.5687540172018207  1.0000
  C   C53       1.0  0.5834155025791848  0.8531755981528863  0.4579347816420657  1.0000
  C   C54       1.0  0.41658449691784166  0.35317559792152026  0.5420652182158071  1.0000
  C   C55       1.0  0.6336617518041546  0.8811276201850495  0.558388851572707  1.0000
  C   C56       1.0  0.3663382490018544  0.3811276199536836  0.4416111484455827  1.0000
  C   C57       1.0  0.5698785683378139  0.8311981843764235  0.6351369593266301  1.0000
  C   C58       1.0  0.4301214311592126  0.3311981848661476  0.36486304053124274  1.0000
  C   C59       1.0  0.4604946771070831  0.7511682754851888  0.6086339392251071  1.0000
  C   C60       1.0  0.539505323698926  0.25116827525382285  0.3913660607931826  1.0000
  C   C61       1.0  0.41018952551015725  0.7241516896932643  0.507217826423688  1.0000
  C   C62       1.0  0.5898104739868693  0.22415169018298836  0.49278217343418496  1.0000
  N   N1        1.0  0.9076833510842364  0.01777956276912738  0.14072241361497767  1.0000
  N   N2        1.0  0.09231664972177274  0.5177795630004933  0.8592775864033121  1.0000
  N   N3        1.0  0.12956485037653104  0.015927561215451996  0.5069282243174968  1.0000
  N   N4        1.0  0.8704351491204954  0.515927561446818  0.49307177554037607  1.0000
  O   O1        1.0  0.8166362577489765  0.9816008172658074  0.04545150684085336  1.0000
  O   O2        1.0  0.18336374174804998  0.4816008170344414  0.9545484930170195  1.0000
  O   O3        1.0  0.4609082860875647  0.4107480395891059  0.7975252230823345  1.0000
  O   O4        1.0  0.5390917134094619  0.9107480398204718  0.20247477677553835  1.0000
  O   O5        1.0  0.382341614473188  0.22886643512854293  0.7795763103104426  1.0000
  O   O6        1.0  0.617658386332821  0.7288664353599089  0.22042368970784693  1.0000
  O   O7        1.0  0.8716241729434144  0.4465334648200761  0.13554831800710632  1.0000
  O   O8        1.0  0.12837582655361204  0.946533464330352  0.8644516818507666  1.0000
  O   O9        1.0  0.22719021105292483  0.6243805199331539  0.38724040175078966  1.0000
  O   O10       1.0  0.7728097897530842  0.12438052042287803  0.6127595982675001  1.0000
  O   O11       1.0  0.26605079644872587  0.5785700421108626  0.5480776720497988  1.0000
  O   O12       1.0  0.7339492030483006  0.07857004260058674  0.45192232780807406  1.0000
  O   O13       1.0  0.6064527794658944  0.8576151686427246  0.7326108911562909  1.0000
  O   O14       1.0  0.39354722003113213  0.3576151684113586  0.26738910870158206  1.0000
  O   O15       1.0  0.19129715489476493  0.5033468661816255  0.22526495712504477  1.0000
  O   O16       1.0  0.8087028446022615  0.0033468659502595534  0.7747350427328282  1.0000
  F   F1        1.0  0.7771075561849358  0.6604323958723259  0.9102848220925764  1.0000
  F   F2        1.0  0.22289244462107324  0.16043239564095996  0.08971517792571318  1.0000
