data_image0
_chemical_formula_structural       H32C40N8O8
_chemical_formula_sum              "H32 C40 N8 O8"
_cell_length_a       3.678937889287315
_cell_length_b       22.132588605234048
_cell_length_c       10.58055647729976
_cell_angle_alpha    90.0
_cell_angle_beta     96.4742282010103
_cell_angle_gamma    90.0

_space_group_name_H-M_alt    "P 1"
_space_group_IT_number       1

loop_
  _space_group_symop_operation_xyz
  'x, y, z'

loop_
  _atom_site_type_symbol
  _atom_site_label
  _atom_site_symmetry_multiplicity
  _atom_site_fract_x
  _atom_site_fract_y
  _atom_site_fract_z
  _atom_site_occupancy
  H   H1        1.0  0.8225787668301411  0.22376682539650125  0.9972479454416842  1.0000
  H   H2        1.0  0.17742123130639662  0.7237668252782583  0.5027520543611543  1.0000
  H   H3        1.0  0.17742123391814016  0.7762331748188352  0.0027520543588791615  1.0000
  H   H4        1.0  0.8225787667063705  0.27623317493707816  0.49724794532377853  1.0000
  H   H5        1.0  0.6192200793058448  0.3249000619972423  0.8880662211985555  1.0000
  H   H6        1.0  0.3807799215662073  0.8249000618789993  0.6119337787199135  1.0000
  H   H7        1.0  0.3807799214181772  0.6750999377662716  0.11193377954614947  1.0000
  H   H8        1.0  0.619220079182074  0.17509993788451472  0.3880662210806498  1.0000
  H   H9        1.0  0.5961122334421196  0.43675999190234704  0.9021611799974113  1.0000
  H   H10       1.0  0.4038877674299323  0.936759991784104  0.5978388199210577  1.0000
  H   H11       1.0  0.4038877673061617  0.5632400083129895  0.09783881980315207  1.0000
  H   H12       1.0  0.596112233318349  0.06324000797941  0.4021611798795056  1.0000
  H   H13       1.0  0.8616046767502491  0.4897568830894272  0.0998841709295038  1.0000
  H   H14       1.0  0.13839532387426154  0.9897568829711842  0.40011582875315393  1.0000
  H   H15       1.0  0.13839532399803223  0.5102431171259092  0.9001158288710597  1.0000
  H   H16       1.0  0.8616046768740198  0.01024311724415223  0.5998841710474095  1.0000
  H   H17       1.0  0.17178818932567988  0.4313168473091515  0.28180483313194493  1.0000
  H   H18       1.0  0.8282118112745713  0.9313168471909086  0.21819516749485438  1.0000
  H   H19       1.0  0.8282118113983421  0.5686831524543625  0.71819516761276  1.0000
  H   H20       1.0  0.17178818947370994  0.0686831525726055  0.781804832305709  1.0000
  H   H21       1.0  0.37132159721030916  0.32924254184513824  0.3743120711738751  1.0000
  H   H22       1.0  0.6286784033899422  0.8292425421787176  0.1256879294529242  1.0000
  H   H23       1.0  0.6286784035137128  0.6707574579183758  0.62568792957083  1.0000
  H   H24       1.0  0.371321594622825  0.1707574580366188  0.8743120702320086  1.0000
  H   H25       1.0  0.7384634944168974  0.49419681606576066  0.37644301638440464  1.0000
  H   H26       1.0  0.26153650620761315  0.99419681639934  0.12355698329825307  1.0000
  H   H27       1.0  0.2615365063313838  0.5058031836977533  0.6235569834161588  1.0000
  H   H28       1.0  0.738463491805154  0.005803183815996375  0.87644301638668  1.0000
  H   H29       1.0  0.8729152278013109  0.6521050590795715  0.32658237221435166  1.0000
  H   H30       1.0  0.12708477279894034  0.15210505919781453  0.17341762841244765  1.0000
  H   H31       1.0  0.12708477294697038  0.3478949406839425  0.6734176275862117  1.0000
  H   H32       1.0  0.8729152279250816  0.8478949410175219  0.8265823723322573  1.0000
  C   C1        1.0  0.938087462505735  0.25119153205085337  0.07764421895910718  1.0000
  C   C2        1.0  0.061912538118775555  0.7511915319326105  0.4223557807235505  1.0000
  C   C3        1.0  0.06191253824254622  0.7488084677126606  0.9223557808414562  1.0000
  C   C4        1.0  0.9380874626295057  0.24880846783090366  0.5776442190770128  1.0000
  C   C5        1.0  0.9132598908805999  0.31513355913327623  0.07600584292101942  1.0000
  C   C6        1.0  0.08674010971965136  0.8151335590150333  0.4239941577057799  1.0000
  C   C7        1.0  0.08674010984342201  0.6848664406302377  0.9239941578236858  1.0000
  C   C8        1.0  0.91325989102863  0.18486644074848074  0.5760058420947836  1.0000
  C   C9        1.0  0.7426973721189406  0.34872129589824735  0.9723416519127148  1.0000
  C   C10       1.0  0.25730262875311133  0.8487212957800043  0.5276583480057542  1.0000
  C   C11       1.0  0.2573026286293407  0.6512787038652667  0.027658347887848413  1.0000
  C   C12       1.0  0.74269737199517  0.15127870398350965  0.47234165179480925  1.0000
  C   C13       1.0  0.728275995074705  0.4108781716499915  0.9821326040210928  1.0000
  C   C14       1.0  0.2717240057973471  0.9108781715317484  0.5178673958973763  1.0000
  C   C15       1.0  0.2717240056735764  0.589121828565345  0.017867395779470583  1.0000
  C   C16       1.0  0.7282759949266748  0.08912182868358798  0.4821326048473287  1.0000
  C   C17       1.0  0.8801317168321212  0.44072986282739646  0.09394804192828185  1.0000
  C   C18       1.0  0.11986828105687533  0.9407298627091535  0.40605195763874535  1.0000
  C   C19       1.0  0.119868281180646  0.5592701369361175  0.906051957756651  1.0000
  C   C20       1.0  0.8801317169558917  0.059270137054360524  0.5939480420461876  1.0000
  C   C21       1.0  0.0526535376852299  0.408725151917418  0.19556301850755176  1.0000
  C   C22       1.0  0.9473464629392807  0.908725151799175  0.3044369811751059  1.0000
  C   C23       1.0  0.9473464630630515  0.5912748482979184  0.8044369812930117  1.0000
  C   C24       1.0  0.052653537809000554  0.09127484796433902  0.6955630186254574  1.0000
  C   C25       1.0  0.07107809320205588  0.3452398789083803  0.18770878514405198  1.0000
  C   C26       1.0  0.9289219073981955  0.8452398787901373  0.3122912154827473  1.0000
  C   C27       1.0  0.928921907521966  0.6547601208551337  0.8122912156006529  1.0000
  C   C28       1.0  0.07107809332582656  0.15476012097337669  0.6877087852619577  1.0000
  C   C29       1.0  0.24104685392494432  0.3083554559174363  0.2871642068502452  1.0000
  C   C30       1.0  0.7589531466995664  0.8083554562510157  0.21283579283241255  1.0000
  C   C31       1.0  0.758953146823337  0.6916445438460777  0.7128357929503183  1.0000
  C   C32       1.0  0.24104685404871498  0.19164454396432073  0.7871642069681507  1.0000
  C   C33       1.0  0.9975558553958864  0.581593769693795  0.4362768115396985  1.0000
  C   C34       1.0  0.00244414522862416  0.0815937698120379  0.06372318814295919  1.0000
  C   C35       1.0  0.0024441426168806232  0.4184062300697191  0.5637231881452344  1.0000
  C   C36       1.0  0.9975558555196572  0.9184062304032985  0.9362768116576041  1.0000
  C   C37       1.0  0.9244348432108606  0.5160165068671246  0.45009781428223916  1.0000
  C   C38       1.0  0.07556515467813597  0.01601650653354524  0.049902185284788014  1.0000
  C   C39       1.0  0.07556515480190663  0.4839834933482118  0.5499021854026938  1.0000
  C   C40       1.0  0.9244348433346312  0.9839834932299687  0.9500978144001448  1.0000
  N   N1        1.0  0.2563790297797123  0.24891488150180355  0.2820116166906593  1.0000
  N   N2        1.0  0.7436209681092842  0.7489148813835605  0.21798838287636801  1.0000
  N   N3        1.0  0.7436209682330548  0.751085118713533  0.7179883829942736  1.0000
  N   N4        1.0  0.25637902990348294  0.25108511837995345  0.7820116168085648  1.0000
  N   N5        1.0  0.09914082595680335  0.22059120770199536  0.17528826091235197  1.0000
  N   N6        1.0  0.9008591746677073  0.7205912075837524  0.32471173877030574  1.0000
  N   N7        1.0  0.900859174791478  0.7794087925133412  0.8247117388882114  1.0000
  N   N8        1.0  0.09914082608057402  0.2794087926315841  0.6752882610302576  1.0000
  O   O1        1.0  0.18784701216256142  0.6111569356510416  0.518343123054092  1.0000
  O   O2        1.0  0.8121529887094906  0.11115693576928454  0.9816568768643771  1.0000
  O   O3        1.0  0.8121529885857198  0.3888430641124725  0.48165687674647134  1.0000
  O   O4        1.0  0.18784701203879076  0.8888430639942295  0.018343122936186368  1.0000
  O   O5        1.0  0.8356996866325677  0.6039825055456336  0.32816718367195336  1.0000
  O   O6        1.0  0.1643003112564288  0.10398250521205417  0.1718328158950739  1.0000
  O   O7        1.0  0.1643003113801994  0.3960174946697029  0.6718328160129796  1.0000
  O   O8        1.0  0.8356996867563384  0.89601749455146  0.8281671837898591  1.0000
