data_image0
_chemical_formula_structural       H40C8O40S8Cl24
_chemical_formula_sum              "H40 C8 O40 S8 Cl24"
_cell_length_a       12.840213258581972
_cell_length_b       6.028502435499151
_cell_length_c       21.73400898188001
_cell_angle_alpha    90.0
_cell_angle_beta     98.5365411237119
_cell_angle_gamma    90.0

_space_group_name_H-M_alt    "P 1"
_space_group_IT_number       1

loop_
  _space_group_symop_operation_xyz
  'x, y, z'

loop_
  _atom_site_type_symbol
  _atom_site_label
  _atom_site_symmetry_multiplicity
  _atom_site_fract_x
  _atom_site_fract_y
  _atom_site_fract_z
  _atom_site_occupancy
  H   H1        1.0  0.3438730581354627  0.24066106558350817  0.38403415474956953  1.0000
  H   H2        1.0  0.15612694164926186  0.7406610642980188  0.11596584531700876  1.0000
  H   H3        1.0  0.6561269422127207  0.7593389351630866  0.6159658453833133  1.0000
  H   H4        1.0  0.8438730579201873  0.25933893478978925  0.8840341548161479  1.0000
  H   H5        1.0  0.3319094770315267  0.49693310271541014  0.4035601162015676  1.0000
  H   H6        1.0  0.16809052353193224  0.9969331030887076  0.09643988386473695  1.0000
  H   H7        1.0  0.6680905233166567  0.5030668980311847  0.5964398839313153  1.0000
  H   H8        1.0  0.8319094768162512  0.0030668976578872614  0.9035601162681459  1.0000
  H   H9        1.0  0.4605668138420005  0.3693984374770538  0.4246153224441183  1.0000
  H   H10       1.0  0.039433185942724054  0.8693984378503513  0.07538467762245991  1.0000
  H   H11       1.0  0.5394331865061829  0.630601563269541  0.5753846776887646  1.0000
  H   H12       1.0  0.9605668135093662  0.13060156289624358  0.9246153220454338  1.0000
  H   H13       1.0  0.5819149979472134  0.4979876083854362  0.46434295757614225  1.0000
  H   H14       1.0  0.9180850021062721  0.9979876087587337  0.03565704263975552  1.0000
  H   H15       1.0  0.4180850016222358  0.5020123907023718  0.5356570425570143  1.0000
  H   H16       1.0  0.08191499824191134  0.002012390329074407  0.9643429574931274  1.0000
  H   H17       1.0  0.5951232033265506  0.2423707986573983  0.45057114480115  1.0000
  H   H18       1.0  0.904876796726935  0.7423707990306957  0.04942885541474776  1.0000
  H   H19       1.0  0.40487679702163293  0.7576292004304097  0.5494288553317329  1.0000
  H   H20       1.0  0.09512320284251413  0.2576292000571124  0.9505711447184089  1.0000
  H   H21       1.0  0.13935096670268765  0.41352043507859854  0.5304047821449538  1.0000
  H   H22       1.0  0.36064903394019365  0.9135204354518959  0.969595217904914  1.0000
  H   H23       1.0  0.8606490336454957  0.5864795656679963  0.4695952179879291  1.0000
  H   H24       1.0  0.6393509664079897  0.08647956529469887  0.030404782227968708  1.0000
  H   H25       1.0  0.08543153463048783  0.6800181411323537  0.5348778540749637  1.0000
  H   H26       1.0  0.41456846589503477  0.1800181407590563  0.9651221455096417  1.0000
  H   H27       1.0  0.9145684656003367  0.3199818579554543  0.4651221455926564  1.0000
  H   H28       1.0  0.5854315343357898  0.8199818583287518  0.03487785415797855  1.0000
  H   H29       1.0  0.164997741977838  0.5945296611136294  0.4776631561198064  1.0000
  H   H30       1.0  0.33500225768952774  0.09452966074033199  0.022336843481509046  1.0000
  H   H31       1.0  0.8350022574742523  0.40547033797417864  0.5223368435480873  1.0000
  H   H32       1.0  0.664997742541297  0.9054703383474761  0.9776631561861112  1.0000
  H   H33       1.0  0.09674860931175633  0.9641158301230346  0.57470621791145  1.0000
  H   H34       1.0  0.40325139055239073  0.4641158297497372  0.9252937821386917  1.0000
  H   H35       1.0  0.9032513902576926  0.03588417062356024  0.4252937822217065  1.0000
  H   H36       1.0  0.5967486096784339  0.5358841709968576  0.07470621752892846  1.0000
  H   H37       1.0  0.9807254928654613  0.8649078715298354  0.5703923417327172  1.0000
  H   H38       1.0  0.5192745072674467  0.364907871156538  0.9296076584667441  1.0000
  H   H39       1.0  0.019274507482722143  0.13509212755797262  0.4296076584001657  1.0000
  H   H40       1.0  0.48072549308073675  0.63509212793127  0.07039234166613893  1.0000
  C   C1        1.0  0.3535962158892245  0.19942590765503376  0.6517435829632625  1.0000
  C   C2        1.0  0.14640378397492257  0.6994259080283312  0.848256417086879  1.0000
  C   C3        1.0  0.646403784458959  0.800574093091561  0.34825641716962025  1.0000
  C   C4        1.0  0.8535962154771676  0.30057409271826363  0.15174358258101472  1.0000
  C   C5        1.0  0.11534457287834188  0.8031953112413537  0.3227511069127461  1.0000
  C   C6        1.0  0.38465542678902376  0.30319531086805634  0.17724889268856941  1.0000
  C   C7        1.0  0.8846554273524826  0.1968046878464543  0.677248892754874  1.0000
  C   C8        1.0  0.6153445726630664  0.6968046882197517  0.8227511069793243  1.0000
  O   O1        1.0  0.33804030381497735  0.2740732508078013  0.5292892937450783  1.0000
  O   O2        1.0  0.16195969682790406  0.7740732511810987  0.9707107063047898  1.0000
  O   O3        1.0  0.661959696533206  0.7259267499387935  0.4707107063878046  1.0000
  O   O4        1.0  0.8380403035202795  0.22592674956549608  0.02928929382809314  1.0000
  O   O5        1.0  0.3002672765468804  0.8961542070858736  0.5638720701444099  1.0000
  O   O6        1.0  0.19973272331726669  0.396154208371363  0.9361279299057318  1.0000
  O   O7        1.0  0.6997327230225687  0.10384579200193443  0.4361279299887467  1.0000
  O   O8        1.0  0.8002672770309167  0.6038457923752318  0.06387207022715106  1.0000
  O   O9        1.0  0.17540461265403276  0.19552082836678916  0.5716604726164303  1.0000
  O   O10       1.0  0.3245953878714898  0.6955208287400866  0.928339526968175  1.0000
  O   O11       1.0  0.8245953875767918  0.8044791723798057  0.4283395270511898  1.0000
  O   O12       1.0  0.6754046123593348  0.30447917200650826  0.07166047269944517  1.0000
  O   O13       1.0  0.23911596923205175  0.6672353528985426  0.4256566516872318  1.0000
  O   O14       1.0  0.26088403043531394  0.167235354184032  0.07434334791408376  1.0000
  O   O15       1.0  0.7608840302200385  0.3327646461892654  0.5743433479806621  1.0000
  O   O16       1.0  0.7391159697955105  0.8327646465625628  0.9256566517535364  1.0000
  O   O17       1.0  0.1460918944412298  0.018305398592886664  0.4319402920183221  1.0000
  O   O18       1.0  0.3539081053434947  0.518305398966184  0.06805970804825615  1.0000
  O   O19       1.0  0.8539081059069537  0.9816946021537082  0.5680597081145607  1.0000
  O   O20       1.0  0.6460918942259544  0.48169460178041074  0.9319402920849004  1.0000
  O   O21       1.0  0.29484764682241194  0.9929141198902718  0.3719035977340715  1.0000
  O   O22       1.0  0.2051523529623126  0.4929141195169744  0.12809640233250677  1.0000
  O   O23       1.0  0.7051523527470371  0.00708587919753624  0.628096402399085  1.0000
  O   O24       1.0  0.7948476464897777  0.5070858795708336  0.871903597335387  1.0000
  O   O25       1.0  0.38157823993735174  0.3865945340382086  0.38964847665105745  1.0000
  O   O26       1.0  0.1184217597300139  0.8865945327527193  0.11035152295025809  1.0000
  O   O27       1.0  0.6184217595147384  0.6134054667083862  0.6103515230168364  1.0000
  O   O28       1.0  0.8815782397220763  0.11340546633508881  0.8896484767176356  1.0000
  O   O29       1.0  0.5437594613911394  0.35416966366759306  0.46186473182961685  1.0000
  O   O30       1.0  0.9562405385449873  0.8541696623821037  0.03813526792101814  1.0000
  O   O31       1.0  0.45624053883968513  0.6458303370790017  0.5381352678380033  1.0000
  O   O32       1.0  0.04375946090710296  0.14583033670570436  0.9618647317468756  1.0000
  O   O33       1.0  0.1117936849993031  0.545470978104984  0.5044756713980001  1.0000
  O   O34       1.0  0.3882063156435783  0.04547097773168654  0.9955243286518679  1.0000
  O   O35       1.0  0.8882063153488803  0.4545290226416108  0.4955243287348828  1.0000
  O   O36       1.0  0.6117936847046052  0.9545290230149082  0.00447567148101498  1.0000
  O   O37       1.0  0.05591071274798034  0.8239502435547617  0.5738760785607792  1.0000
  O   O38       1.0  0.44408928699880784  0.3239502431814643  0.9261239210240999  1.0000
  O   O39       1.0  0.9440892874828443  0.17604975553304633  0.42612392110684094  1.0000
  O   O40       1.0  0.5559107124532824  0.6760497559063438  0.07387607864379402  1.0000
  S   S1        1.0  0.28704134216121524  0.13457617354894974  0.5706479738120173  1.0000
  S   S2        1.0  0.21295865770293182  0.6345761739222472  0.9293520262381245  1.0000
  S   S3        1.0  0.7129586574082338  0.8654238271976451  0.4293520263211394  1.0000
  S   S4        1.0  0.7870413426452516  0.3654238268243476  0.07064797389475841  1.0000
  S   S5        1.0  0.20743424873615723  0.8821854825309788  0.3951835420216163  1.0000
  S   S6        1.0  0.2925657518273017  0.38218548215768144  0.10481645804468827  1.0000
  S   S7        1.0  0.7925657516120262  0.11781451821561596  0.6048164581112666  1.0000
  S   S8        1.0  0.7074342485208818  0.6178145185889133  0.8951835420881945  1.0000
  Cl  Cl1       1.0  0.337057040444717  0.4850460029312219  0.6650097246992417  1.0000
  Cl  Cl2       1.0  0.1629429601981644  0.9850460016457325  0.8349902753506264  1.0000
  Cl  Cl3       1.0  0.6629429599034663  0.5149539978153729  0.33499027543364124  1.0000
  Cl  Cl4       1.0  0.8370570400326601  0.01495399744207546  0.16500972431699373  1.0000
  Cl  Cl5       1.0  0.48788767669630995  0.12996812863278312  0.6548630334527361  1.0000
  Cl  Cl6       1.0  0.01211232394657146  0.6299681290060806  0.845136966597132  1.0000
  Cl  Cl7       1.0  0.5121123236518734  0.8700318704550248  0.3451369666801468  1.0000
  Cl  Cl8       1.0  0.987887676401612  0.3700318700817275  0.15486303353575093  1.0000
  Cl  Cl9       1.0  0.2937077015244654  0.03943470912445872  0.7049050515797315  1.0000
  Cl  Cl10      1.0  0.20629229833968157  0.5394347078389694  0.7950949484704101  1.0000
  Cl  Cl11      1.0  0.7062922988237179  0.960565291622136  0.2950949485531514  1.0000
  Cl  Cl12      1.0  0.7937077011124085  0.4605652912488387  0.2049050511974836  1.0000
  Cl  Cl13      1.0  0.18632995840226205  0.6386106618004935  0.27632052779149696  1.0000
  Cl  Cl14      1.0  0.3136700412651036  0.13861066308598285  0.2236794718098186  1.0000
  Cl  Cl15      1.0  0.8136700418285625  0.36138933728731454  0.7236794718761231  1.0000
  Cl  Cl16      1.0  0.6863299581869866  0.8613893376606119  0.7763205278580753  1.0000
  Cl  Cl17      1.0  0.008555505351288916  0.6534399831711828  0.34459630241771916  1.0000
  Cl  Cl18      1.0  0.49144449443343563  0.1534399827978854  0.15540369764885917  1.0000
  Cl  Cl19      1.0  0.9914444942181603  0.346560017575412  0.6554036977154375  1.0000
  Cl  Cl20      1.0  0.5085555051360134  0.8465600162899226  0.8445963024842974  1.0000
  Cl  Cl21      1.0  0.07227175146850826  0.051838408185717985  0.2845745619613456  1.0000
  Cl  Cl22      1.0  0.4277282489775918  0.5518384085590154  0.2154254376396962  1.0000
  Cl  Cl23      1.0  0.9277282487623163  0.9481615909020901  0.7154254377062745  1.0000
  Cl  Cl24      1.0  0.5722717512532327  0.4481615905287926  0.7845745620279239  1.0000
