data_image0
_chemical_formula_structural       H70C68N4O4
_chemical_formula_sum              "H70 C68 N4 O4"
_cell_length_a       9.850761639750093
_cell_length_b       10.162695449042424
_cell_length_c       15.017853814252419
_cell_angle_alpha    88.9328312841508
_cell_angle_beta     98.90241288290626
_cell_angle_gamma    111.86838568889127

_space_group_name_H-M_alt    "P 1"
_space_group_IT_number       1

loop_
  _space_group_symop_operation_xyz
  'x, y, z'

loop_
  _atom_site_type_symbol
  _atom_site_label
  _atom_site_symmetry_multiplicity
  _atom_site_fract_x
  _atom_site_fract_y
  _atom_site_fract_z
  _atom_site_occupancy
  H   H1        1.0  0.11669505584812627  0.06888930111786645  0.11267837918101616  1.0000
  H   H2        1.0  0.8833049437160618  0.9311106982764851  0.8873216207175054  1.0000
  H   H3        1.0  0.15282593750131407  0.9914632749169807  0.9653086448292497  1.0000
  H   H4        1.0  0.8471740620628739  0.008536724477370942  0.03469135506927194  1.0000
  H   H5        1.0  0.28233407045310155  0.17014580228085413  0.8607531738291477  1.0000
  H   H6        1.0  0.7176659301386987  0.8298541971137304  0.13924682617122644  1.0000
  H   H7        1.0  0.3706845814320041  0.4282028182735604  0.9028359979561532  1.0000
  H   H8        1.0  0.629315418132184  0.5717971811207913  0.09716400194236832  1.0000
  H   H9        1.0  0.3328780042801364  0.5052706768166557  0.04991522325461079  1.0000
  H   H10       1.0  0.6671219956984228  0.4947293236388992  0.9500847766787404  1.0000
  H   H11       1.0  0.4119241957026645  0.2693339532269958  0.22802152218563565  1.0000
  H   H12       1.0  0.5880758038615235  0.7306660461673558  0.771978477712886  1.0000
  H   H13       1.0  0.6810477443362027  0.3192119497336842  0.2618376863474347  1.0000
  H   H14       1.0  0.3189522552279853  0.6807880496606674  0.738162313551087  1.0000
  H   H15       1.0  0.8606412850034165  0.563604758061964  0.2968652922270653  1.0000
  H   H16       1.0  0.13935871456077165  0.4363952413323876  0.7031347076714562  1.0000
  H   H17       1.0  0.7694839254899881  0.7630606958453583  0.29913667491184015  1.0000
  H   H18       1.0  0.23051607448857114  0.23693930461019655  0.700863325021511  1.0000
  H   H19       1.0  0.5021529613695297  0.7171939824190602  0.256036643179123  1.0000
  H   H20       1.0  0.4978470392222706  0.28280601697552443  0.7439633568212511  1.0000
  H   H21       1.0  0.5429436624359507  0.9745176357652006  0.285698725211477  1.0000
  H   H22       1.0  0.45705633754260844  0.025482364690354323  0.7143012747218742  1.0000
  H   H23       1.0  0.3778841872547257  0.02232233349961406  0.15667844311209914  1.0000
  H   H24       1.0  0.6221158127238334  0.9776776669559407  0.8433215568212519  1.0000
  H   H25       1.0  0.48264762474470546  0.16104609871556047  0.03002605411842829  1.0000
  H   H26       1.0  0.5173523752338537  0.8389539017399943  0.9699739458149227  1.0000
  H   H27       1.0  0.11624637159990973  0.638616326241053  0.5801007139962172  1.0000
  H   H28       1.0  0.8837536289918905  0.36138367315353154  0.4198992860041569  1.0000
  H   H29       1.0  0.99518493342876  0.8062454087573753  0.5246464020709456  1.0000
  H   H30       1.0  0.00481506613542799  0.19375459063697623  0.4753535978275759  1.0000
  H   H31       1.0  0.002514312333550245  0.8897204857572014  0.3697650333576558  1.0000
  H   H32       1.0  0.9974856872306378  0.11027951363714998  0.6302349665408657  1.0000
  H   H33       1.0  0.9059918934982354  0.9959423321315274  0.2774532881682193  1.0000
  H   H34       1.0  0.09400810606595265  0.0040576672628242  0.7225467117303024  1.0000
  H   H35       1.0  0.7899902783533337  0.9969190428495215  0.3578560646331458  1.0000
  H   H36       1.0  0.21000972162522538  0.00308095760603331  0.6421439353002054  1.0000
  H   H37       1.0  0.9334009045083003  0.15652274908323763  0.33368597790852655  1.0000
  H   H38       1.0  0.06659909547025898  0.8434772513723172  0.6663140220248246  1.0000
  H   H39       1.0  0.8451699693986648  0.3866899964380253  0.030485412609627015  1.0000
  H   H40       1.0  0.15483003016552313  0.6133100029563262  0.9695145872888945  1.0000
  H   H41       1.0  0.6895213604737673  0.27721678934355715  0.9525736653663921  1.0000
  H   H42       1.0  0.3104786395047919  0.7227832111119977  0.04742633456695894  1.0000
  H   H43       1.0  0.8485176814511793  0.2324868295284047  0.9805988028506898  1.0000
  H   H44       1.0  0.1514823185273799  0.7675131709271503  0.01940119708266142  1.0000
  H   H45       1.0  0.2645410092022879  0.5011646557144326  0.5543012091158749  1.0000
  H   H46       1.0  0.7354589903619001  0.49883534367991894  0.4456987907826466  1.0000
  H   H47       1.0  0.3845869602636729  0.5673645851941626  0.47269044719516695  1.0000
  H   H48       1.0  0.6154130397148863  0.4326354152613922  0.5273095527381841  1.0000
  H   H49       1.0  0.2135525572074003  0.4244054049947302  0.44295054178571136  1.0000
  H   H50       1.0  0.786447442771159  0.5755945954608247  0.5570494581476397  1.0000
  H   H51       1.0  0.22804635415503463  0.8418987902685794  0.2154624307073797  1.0000
  H   H52       1.0  0.7719536464367656  0.15810120912600517  0.7845375692929945  1.0000
  H   H53       1.0  0.07269071502046433  0.8886624260148891  0.22288052200395564  1.0000
  H   H54       1.0  0.9273092845436899  0.11133757336967351  0.7771194785605272  1.0000
  H   H55       1.0  0.04699069199688353  0.7125327866402568  0.19065513250250063  1.0000
  H   H56       1.0  0.9530093079816755  0.2874672138152981  0.8093448674308504  1.0000
  H   H57       1.0  0.3476513522727001  0.9652114967127488  0.5282186038857675  1.0000
  H   H58       1.0  0.6523486477058591  0.0347885037428061  0.4717813960475835  1.0000
  H   H59       1.0  0.506807015926405  0.11867920878582003  0.5643492420357717  1.0000
  H   H60       1.0  0.49319298405215417  0.8813207916697349  0.43565075789757945  1.0000
  H   H61       1.0  0.35775538680258967  0.039418469986330675  0.36781603617524455  1.0000
  H   H62       1.0  0.6422446127615983  0.9605815294080209  0.6321839637232769  1.0000
  H   H63       1.0  0.512977366918063  0.19430737131303202  0.4053318681206259  1.0000
  H   H64       1.0  0.4870226326461251  0.8056926280813195  0.5946681317778957  1.0000
  H   H65       1.0  0.2028320828867423  0.11526187334822592  0.45821106700813924  1.0000
  H   H66       1.0  0.7971679166774457  0.8847381260461257  0.5417889328903823  1.0000
  H   H67       1.0  0.28099020844173545  0.2467504770105761  0.38148458155306664  1.0000
  H   H68       1.0  0.7190097915368238  0.7532495234449788  0.6185154183802846  1.0000
  H   H69       1.0  0.3576345523399826  0.2711261277836789  0.4976662157482722  1.0000
  H   H70       1.0  0.6423654472242055  0.7288738716106727  0.5023337841502494  1.0000
  C   C1        1.0  0.047192921419199924  0.41682270432992385  0.24873935911610626  1.0000
  C   C2        1.0  0.9528070781449882  0.5831772950644277  0.7512606407824154  1.0000
  C   C3        1.0  0.05280141026068468  0.31304570411996485  0.19269964814139345  1.0000
  C   C4        1.0  0.9471985893035034  0.6869542952743867  0.8073003517571281  1.0000
  C   C5        1.0  0.19560134089969122  0.5068528220588545  0.26025494395350074  1.0000
  C   C6        1.0  0.8043986586644968  0.493147177335497  0.7397450559450209  1.0000
  C   C7        1.0  0.22136981102292047  0.29152725693589426  0.08948647841182622  1.0000
  C   C8        1.0  0.778630189983251  0.7084727435198936  0.9105135216233774  1.0000
  C   C9        1.0  0.17178665817629213  0.1468086456669781  0.06629098049461063  1.0000
  C   C10       1.0  0.828213341802267  0.8531913547885768  0.9337090194387406  1.0000
  C   C11       1.0  0.1923898849586589  0.10407939237941782  0.9834571767271588  1.0000
  C   C12       1.0  0.807610114605529  0.8959206070149337  0.01654282317136273  1.0000
  C   C13       1.0  0.2643725042855627  0.20461681034381463  0.9245750463941345  1.0000
  C   C14       1.0  0.7356274967206087  0.7953831901119732  0.0754249536410693  1.0000
  C   C15       1.0  0.31561297205953703  0.3490193254847218  0.9487339607681232  1.0000
  C   C16       1.0  0.684387027504651  0.6509806739096298  0.05126603913039835  1.0000
  C   C17       1.0  0.2943127486577095  0.39297115334137306  0.03107424211976616  1.0000
  C   C18       1.0  0.7056872513208496  0.6070288471141818  0.968925757813585  1.0000
  C   C19       1.0  0.4399813583349729  0.4902954838534067  0.23931534598870616  1.0000
  C   C20       1.0  0.5600186416435862  0.5097045166021481  0.7606846539446449  1.0000
  C   C21       1.0  0.4902945281213853  0.37790229945125237  0.24194566554027055  1.0000
  C   C22       1.0  0.5097054714428028  0.6220976999430992  0.7580543343582511  1.0000
  C   C23       1.0  0.6415426129573752  0.40602380624792167  0.26162733301416874  1.0000
  C   C24       1.0  0.3584573866068128  0.5939761931464299  0.7383726668843529  1.0000
  C   C25       1.0  0.742973746398117  0.544349478229736  0.2819136833224818  1.0000
  C   C26       1.0  0.2570262535804422  0.4556505222258189  0.7180863166108693  1.0000
  C   C27       1.0  0.6914623970375722  0.6549523113406295  0.2822471879861912  1.0000
  C   C28       1.0  0.30853760396859925  0.34504768911515843  0.7177528120490124  1.0000
  C   C29       1.0  0.5409973872387444  0.6298718436450488  0.25921946822599173  1.0000
  C   C30       1.0  0.4590026123254436  0.3701281557493027  0.7407805316725298  1.0000
  C   C31       1.0  0.7973554113391493  0.1623407873680488  0.15714135500881468  1.0000
  C   C32       1.0  0.20264458966702195  0.837659213087739  0.842858645026389  1.0000
  C   C33       1.0  0.7427585018937859  0.08445545467316581  0.2302825131498294  1.0000
  C   C34       1.0  0.25724149808477337  0.9155445457823892  0.7697174867835217  1.0000
  C   C35       1.0  0.5894131277521348  0.03443402756597008  0.2293172848458819  1.0000
  C   C36       1.0  0.4105868722264243  0.9655659728895849  0.7706827150874692  1.0000
  C   C37       1.0  0.49716150722145397  0.061668657239777776  0.15714775961036168  1.0000
  C   C38       1.0  0.5028384927570712  0.9383313432059881  0.8428522409889507  1.0000
  C   C39       1.0  0.5560747590492721  0.14032504544874305  0.08564683250233643  1.0000
  C   C40       1.0  0.4439252415425282  0.8596749539458416  0.9143531674980377  1.0000
  C   C41       1.0  0.7087071248264816  0.19266447885737417  0.08406654152518596  1.0000
  C   C42       1.0  0.29129287617968985  0.8073355215984137  0.9159334585100177  1.0000
  C   C43       1.0  0.18950194884163513  0.67209074399607  0.3659653879685281  1.0000
  C   C44       1.0  0.810498050722553  0.32790925539828164  0.6340346119299933  1.0000
  C   C45       1.0  0.19284871312037957  0.6257373033953528  0.45422484398437124  1.0000
  C   C46       1.0  0.8071512868581795  0.37426269706020204  0.54577515594898  1.0000
  C   C47       1.0  0.12064781249873367  0.6751381016373795  0.5113823311000321  1.0000
  C   C48       1.0  0.8793521885074378  0.3248618988184084  0.48861766893517156  1.0000
  C   C49       1.0  0.05224363378665272  0.7689995027378289  0.4803016302566316  1.0000
  C   C50       1.0  0.9477563668051135  0.23100049664696667  0.5196983704097037  1.0000
  C   C51       1.0  0.054871147914765876  0.8151423087825824  0.39247046042806427  1.0000
  C   C52       1.0  0.9451288516494221  0.18485769061176904  0.6075295394704573  1.0000
  C   C53       1.0  0.12213935093453239  0.76568739845501  0.33230709359398003  1.0000
  C   C54       1.0  0.8778606490440267  0.23431260200054488  0.6676929063393711  1.0000
  C   C55       1.0  0.847739509405365  0.05621377409264046  0.3042961087284241  1.0000
  C   C56       1.0  0.1522604905731941  0.9437862263629145  0.695703891204927  1.0000
  C   C57       1.0  0.7760884714343109  0.27633723872156324  0.007817729401006633  1.0000
  C   C58       1.0  0.22391152812987714  0.7236627606727883  0.992182270497515  1.0000
  C   C59       1.0  0.26819981356665634  0.5247578515595871  0.48315274368889566  1.0000
  C   C60       1.0  0.731800187439515  0.4752421488962007  0.516847256346308  1.0000
  C   C61       1.0  0.11770474388104328  0.8050827831631241  0.23542642366285882  1.0000
  C   C62       1.0  0.8822952556831447  0.19491721623122737  0.7645735762356628  1.0000
  C   C63       1.0  0.4505776190640518  0.04007116273284703  0.5076877533159103  1.0000
  C   C64       1.0  0.5494223819421196  0.9599288377229408  0.4923122467192934  1.0000
  C   C65       1.0  0.4109758612596067  0.11679851635490585  0.42523181489059675  1.0000
  C   C66       1.0  0.5890241387189524  0.883201484100649  0.5747681850427544  1.0000
  C   C67       1.0  0.307720505115559  0.19170771779959236  0.441337008753396  1.0000
  C   C68       1.0  0.692279494448629  0.8082922815947592  0.5586629911451255  1.0000
  N   N1        1.0  0.19317012192454286  0.3329852959692158  0.17281878212411297  1.0000
  N   N2        1.0  0.8068298786672574  0.6670147034253688  0.8271812178762612  1.0000
  N   N3        1.0  0.286179881601828  0.4633446841582977  0.21485741511939174  1.0000
  N   N4        1.0  0.7138201194043433  0.5366553162974902  0.7851425849158119  1.0000
  O   O1        1.0  0.9468456133324411  0.19530981399489958  0.15021824132336575  1.0000
  O   O2        1.0  0.05315438664611789  0.8046901864606553  0.8497817586099854  1.0000
  O   O3        1.0  0.2685431026000729  0.6294554045786644  0.3092949472273852  1.0000
  O   O4        1.0  0.7314568969641151  0.37054459481568713  0.6907050526711364  1.0000
