data_image0
_chemical_formula_structural       H104C120N16F16I8
_chemical_formula_sum              "H104 C120 N16 F16 I8"
_cell_length_a       7.426059564977804
_cell_length_b       12.905449226388008
_cell_length_c       30.289930198744532
_cell_angle_alpha    90.0
_cell_angle_beta     90.0
_cell_angle_gamma    90.0

_space_group_name_H-M_alt    "P 1"
_space_group_IT_number       1

loop_
  _space_group_symop_operation_xyz
  'x, y, z'

loop_
  _atom_site_type_symbol
  _atom_site_label
  _atom_site_symmetry_multiplicity
  _atom_site_fract_x
  _atom_site_fract_y
  _atom_site_fract_z
  _atom_site_occupancy
  H   H1        1.0  0.03949016264063276  0.27850099496350067  0.654806434675181  1.0000
  H   H2        1.0  0.4605098370242094  0.721499004541514  0.15480643498459942  1.0000
  H   H3        1.0  0.5394901623054749  0.22149900478900672  0.34519356503612475  1.0000
  H   H4        1.0  0.9605098366890517  0.7785009954908745  0.845193565056849  1.0000
  H   H5        1.0  0.9605098366890517  0.721499004541514  0.34519356503612475  1.0000
  H   H6        1.0  0.5394901623054749  0.27850099496350067  0.845193565056849  1.0000
  H   H7        1.0  0.4605098370242094  0.7785009954908745  0.654806434675181  1.0000
  H   H8        1.0  0.03949016264063276  0.22149900478900672  0.15480643498459942  1.0000
  H   H9        1.0  0.07092523099113793  0.16356238074099078  0.7883590455084563  1.0000
  H   H10       1.0  0.42907476867370425  0.8364376195388904  0.28835904548773195  1.0000
  H   H11       1.0  0.57092523065598  0.3364376197863831  0.21164095453299223  1.0000
  H   H12       1.0  0.9290747696851557  0.663562380493498  0.7116409545537165  1.0000
  H   H13       1.0  0.9290747696851557  0.8364376195388904  0.21164095453299223  1.0000
  H   H14       1.0  0.57092523065598  0.16356238074099078  0.7116409545537165  1.0000
  H   H15       1.0  0.42907476867370425  0.663562380493498  0.7883590455084563  1.0000
  H   H16       1.0  0.07092523099113793  0.3364376197863831  0.28835904548773195  1.0000
  H   H17       1.0  0.1736119807172397  0.48718352842334206  0.7622088772907417  1.0000
  H   H18       1.0  0.3263880189476025  0.5128164718565391  0.26220887727001746  1.0000
  H   H19       1.0  0.6736119817286911  0.012816472104031747  0.23779112275070674  1.0000
  H   H20       1.0  0.8263880186124446  0.9871835281758494  0.737791122771431  1.0000
  H   H21       1.0  0.8263880186124446  0.5128164718565391  0.23779112275070674  1.0000
  H   H22       1.0  0.6736119817286911  0.48718352842334206  0.737791122771431  1.0000
  H   H23       1.0  0.3263880189476025  0.9871835281758494  0.7622088772907417  1.0000
  H   H24       1.0  0.1736119807172397  0.012816472104031747  0.26220887727001746  1.0000
  H   H25       1.0  0.9836600792228944  0.7020544958229104  0.5025789336626127  1.0000
  H   H26       1.0  0.5163399197716321  0.29794550445697093  0.002578933972031331  1.0000
  H   H27       1.0  0.48366007955805235  0.7979455042094783  0.49742106604869285  1.0000
  H   H28       1.0  0.016339920106789863  0.20205449529553646  0.997421066069417  1.0000
  H   H29       1.0  0.016339920106789863  0.29794550445697093  0.49742106604869285  1.0000
  H   H30       1.0  0.48366007955805235  0.7020544958229104  0.997421066069417  1.0000
  H   H31       1.0  0.5163399197716321  0.20205449529553646  0.5025789336626127  1.0000
  H   H32       1.0  0.9836600792228944  0.7979455042094783  0.002578933972031331  1.0000
  H   H33       1.0  0.016344841963351904  0.7996853971497478  0.4334554990339393  1.0000
  H   H34       1.0  0.48365515770149026  0.20031460235526685  0.9334554990546635  1.0000
  H   H35       1.0  0.5163448429748032  0.7003146028826407  0.566544501007509  1.0000
  H   H36       1.0  0.9836551573663325  0.29968539739724054  0.06654450098678485  1.0000
  H   H37       1.0  0.9836551573663325  0.20031460235526685  0.566544501007509  1.0000
  H   H38       1.0  0.5163448429748032  0.7996853971497478  0.06654450098678485  1.0000
  H   H39       1.0  0.48365515770149026  0.29968539739724054  0.4334554990339393  1.0000
  H   H40       1.0  0.016344841963351904  0.7003146028826407  0.9334554990546635  1.0000
  H   H41       1.0  0.30341288139219696  0.0342893542283807  0.5092199189233956  1.0000
  H   H42       1.0  0.19658711827264524  0.9657106460515005  0.009219918902671334  1.0000
  H   H43       1.0  0.8034128824036483  0.4657106455241267  0.4907800811180529  1.0000
  H   H44       1.0  0.6965871179374874  0.5342893539808881  0.990780081138777  1.0000
  H   H45       1.0  0.6965871179374874  0.9657106460515005  0.4907800811180529  1.0000
  H   H46       1.0  0.8034128824036483  0.0342893542283807  0.990780081138777  1.0000
  H   H47       1.0  0.19658711827264524  0.5342893539808881  0.5092199189233956  1.0000
  H   H48       1.0  0.30341288139219696  0.4657106455241267  0.009219918902671334  1.0000
  H   H49       1.0  0.2543667827428268  0.9259309908845735  0.5747657243106358  1.0000
  H   H50       1.0  0.24563321692201537  0.07406900939530772  0.07476572428991157  1.0000
  H   H51       1.0  0.7543667837542782  0.574069009147815  0.4252342754006699  1.0000
  H   H52       1.0  0.7456332165868574  0.4259309911320661  0.9252342754213941  1.0000
  H   H53       1.0  0.7456332165868574  0.07406900939530772  0.4252342754006699  1.0000
  H   H54       1.0  0.7543667837542782  0.9259309908845735  0.9252342754213941  1.0000
  H   H55       1.0  0.24563321692201537  0.4259309911320661  0.5747657243106358  1.0000
  H   H56       1.0  0.2543667827428268  0.574069009147815  0.07476572428991157  1.0000
  H   H57       1.0  0.9771854718514758  0.9412726017442068  0.3841273358392308  1.0000
  H   H58       1.0  0.5228145271430508  0.05872739776080797  0.884127335859955  1.0000
  H   H59       1.0  0.4771854721866336  0.5587273982881819  0.6158726642022176  1.0000
  H   H60       1.0  0.022814527478208613  0.4412726019916994  0.11587266418149338  1.0000
  H   H61       1.0  0.022814527478208613  0.05872739776080797  0.6158726642022176  1.0000
  H   H62       1.0  0.4771854721866336  0.9412726017442068  0.11587266418149338  1.0000
  H   H63       1.0  0.5228145271430508  0.4412726019916994  0.3841273358392308  1.0000
  H   H64       1.0  0.9771854718514758  0.5587273982881819  0.884127335859955  1.0000
  H   H65       1.0  0.1761520532597438  0.8650052806510783  0.37735110133973676  1.0000
  H   H66       1.0  0.3238479477517076  0.13499471885393638  0.877351101360461  1.0000
  H   H67       1.0  0.6761520529245859  0.6349947193813102  0.6226488987017117  1.0000
  H   H68       1.0  0.8238479474165498  0.365005280898571  0.12264889868098745  1.0000
  H   H69       1.0  0.8238479474165498  0.13499471885393638  0.6226488987017117  1.0000
  H   H70       1.0  0.6761520529245859  0.8650052806510783  0.12264889868098745  1.0000
  H   H71       1.0  0.3238479477517076  0.365005280898571  0.37735110133973676  1.0000
  H   H72       1.0  0.1761520532597438  0.6349947193813102  0.877351101360461  1.0000
  H   H73       1.0  0.16980546802330543  0.9944277037454098  0.35792190602173657  1.0000
  H   H74       1.0  0.33019453298814594  0.005572296534471516  0.8579219057123181  1.0000
  H   H75       1.0  0.6698054676881475  0.5055722962869789  0.6420780940197118  1.0000
  H   H76       1.0  0.8301945326529881  0.49442770321803586  0.14207809399898766  1.0000
  H   H77       1.0  0.8301945326529881  0.005572296534471516  0.6420780940197118  1.0000
  H   H78       1.0  0.6698054676881475  0.9944277037454098  0.14207809399898766  1.0000
  H   H79       1.0  0.33019453298814594  0.49442770321803586  0.35792190602173657  1.0000
  H   H80       1.0  0.16980546802330543  0.5055722962869789  0.8579219057123181  1.0000
  H   H81       1.0  0.42462853851474935  0.0709895203126078  0.44165290617125563  1.0000
  H   H82       1.0  0.07537146249670204  0.9290104799672735  0.9416529061919798  1.0000
  H   H83       1.0  0.9246285381795915  0.42901047943989956  0.5583470938701929  1.0000
  H   H84       1.0  0.5753714621615442  0.5709895200651152  0.05834709384946859  1.0000
  H   H85       1.0  0.5753714621615442  0.9290104799672735  0.5583470938701929  1.0000
  H   H86       1.0  0.9246285381795915  0.0709895203126078  0.05834709384946859  1.0000
  H   H87       1.0  0.07537146249670204  0.5709895200651152  0.44165290617125563  1.0000
  H   H88       1.0  0.42462853851474935  0.42901047943989956  0.9416529061919798  1.0000
  H   H89       1.0  0.21483859724531695  0.13745240238308828  0.44724118448320155  1.0000
  H   H90       1.0  0.2851614037661344  0.8625475978967929  0.9472411845039257  1.0000
  H   H91       1.0  0.7148385969101592  0.3625475981442855  0.5527588155582468  1.0000
  H   H92       1.0  0.7851614034309765  0.6374524021355957  0.052758815537522666  1.0000
  H   H93       1.0  0.7851614034309765  0.8625475978967929  0.5527588155582468  1.0000
  H   H94       1.0  0.7148385969101592  0.13745240238308828  0.052758815537522666  1.0000
  H   H95       1.0  0.2851614037661344  0.6374524021355957  0.44724118448320155  1.0000
  H   H96       1.0  0.21483859724531695  0.3625475981442855  0.9472411845039257  1.0000
  H   H97       1.0  0.30271223255488644  0.10976856017560602  0.39401215029853953  1.0000
  H   H98       1.0  0.19728776845656487  0.8902314393294087  0.8940121503192637  1.0000
  H   H99       1.0  0.8027122322197286  0.3902314395769014  0.6059878497429089  1.0000
  H   H100      1.0  0.6972877681214071  0.6097685607029799  0.10598784972218471  1.0000
  H   H101      1.0  0.6972877681214071  0.8902314393294087  0.6059878497429089  1.0000
  H   H102      1.0  0.8027122322197286  0.10976856017560602  0.10598784972218471  1.0000
  H   H103      1.0  0.19728776845656487  0.6097685607029799  0.39401215029853953  1.0000
  H   H104      1.0  0.30271223255488644  0.3902314395769014  0.8940121503192637  1.0000
  C   C1        1.0  0.10575238363339834  0.550455015969114  0.6482125581396622  1.0000
  C   C2        1.0  0.39424761603144387  0.4495449843107672  0.14821255811893805  1.0000
  C   C3        1.0  0.6057523846448497  0.9495449840632746  0.35178744157164343  1.0000
  C   C4        1.0  0.894247615696286  0.05045501544174012  0.8517874415923676  1.0000
  C   C5        1.0  0.894247615696286  0.4495449843107672  0.35178744157164343  1.0000
  C   C6        1.0  0.6057523846448497  0.550455015969114  0.8517874415923676  1.0000
  C   C7        1.0  0.39424761603144387  0.05045501544174012  0.6482125581396622  1.0000
  C   C8        1.0  0.10575238363339834  0.9495449840632746  0.14821255811893805  1.0000
  C   C9        1.0  0.10985375256715145  0.4779523945115981  0.6743141867935563  1.0000
  C   C10       1.0  0.3901462484442999  0.5220476049934166  0.17431418677283206  1.0000
  C   C11       1.0  0.6098537522319937  0.022047605240909214  0.32568581324789214  1.0000
  C   C12       1.0  0.8901462481091421  0.977952395038972  0.8256858132686163  1.0000
  C   C13       1.0  0.8901462481091421  0.5220476049934166  0.32568581324789214  1.0000
  C   C14       1.0  0.6098537522319937  0.4779523945115981  0.8256858132686163  1.0000
  C   C15       1.0  0.3901462484442999  0.977952395038972  0.6743141867935563  1.0000
  C   C16       1.0  0.10985375256715145  0.022047605240909214  0.17431418677283206  1.0000
  C   C17       1.0  0.10775637644678544  0.39382528347852747  0.7045351415462991  1.0000
  C   C18       1.0  0.3922436232180567  0.6061747160264872  0.20453514152557498  1.0000
  C   C19       1.0  0.6077563761116276  0.1061747162739799  0.29546485849514925  1.0000
  C   C20       1.0  0.8922436228828989  0.8938252832310348  0.7954648585158733  1.0000
  C   C21       1.0  0.8922436228828989  0.6061747160264872  0.29546485849514925  1.0000
  C   C22       1.0  0.6077563761116276  0.39382528347852747  0.7954648585158733  1.0000
  C   C23       1.0  0.3922436232180567  0.8938252832310348  0.7045351415462991  1.0000
  C   C24       1.0  0.10775637644678544  0.1061747162739799  0.20453514152557498  1.0000
  C   C25       1.0  0.06578390406453198  0.2932398968539571  0.689511833238416  1.0000
  C   C26       1.0  0.4342160956003102  0.7067601026510576  0.1895118332176918  1.0000
  C   C27       1.0  0.5657839037293741  0.20676010289855024  0.3104881668030324  1.0000
  C   C28       1.0  0.9342160952651524  0.7932398973813309  0.8104881668237566  1.0000
  C   C29       1.0  0.9342160952651524  0.7067601026510576  0.3104881668030324  1.0000
  C   C30       1.0  0.5657839037293741  0.2932398968539571  0.8104881668237566  1.0000
  C   C31       1.0  0.4342160956003102  0.7932398973813309  0.689511833238416  1.0000
  C   C32       1.0  0.06578390406453198  0.20676010289855024  0.1895118332176918  1.0000
  C   C33       1.0  0.05514903919320018  0.21370944952157367  0.7200712542712967  1.0000
  C   C34       1.0  0.44485096047164197  0.7862905499834411  0.22007125458071516  1.0000
  C   C35       1.0  0.5551490402046515  0.2862905502309337  0.279928745440009  1.0000
  C   C36       1.0  0.9448509601364842  0.7137094500489475  0.7799287454607332  1.0000
  C   C37       1.0  0.9448509601364842  0.7862905499834411  0.279928745440009  1.0000
  C   C38       1.0  0.5551490402046515  0.21370944952157367  0.7799287454607332  1.0000
  C   C39       1.0  0.44485096047164197  0.7137094500489475  0.7200712542712967  1.0000
  C   C40       1.0  0.05514903919320018  0.2862905502309337  0.22007125458071516  1.0000
  C   C41       1.0  0.08430995664951568  0.22712237277309907  0.7650100098599912  1.0000
  C   C42       1.0  0.41569004301532647  0.7728776275067821  0.26501000983926704  1.0000
  C   C43       1.0  0.5843099563143578  0.27287762775427477  0.23498999018145716  1.0000
  C   C44       1.0  0.9156900440267779  0.7271223725256064  0.7349899902021814  1.0000
  C   C45       1.0  0.9156900440267779  0.7728776275067821  0.23498999018145716  1.0000
  C   C46       1.0  0.5843099563143578  0.22712237277309907  0.7349899902021814  1.0000
  C   C47       1.0  0.41569004301532647  0.7271223725256064  0.7650100098599912  1.0000
  C   C48       1.0  0.08430995664951568  0.27287762775427477  0.26501000983926704  1.0000
  C   C49       1.0  0.1276515050418712  0.3270403304807133  0.7783874672308503  1.0000
  C   C50       1.0  0.372348494622971  0.6729596697991679  0.278387467210126  1.0000
  C   C51       1.0  0.6276515047067134  0.17295967004666052  0.22161253281059815  1.0000
  C   C52       1.0  0.8723484942878131  0.8270403302332207  0.7216125328313223  1.0000
  C   C53       1.0  0.8723484942878131  0.6729596697991679  0.22161253281059815  1.0000
  C   C54       1.0  0.6276515047067134  0.3270403304807133  0.7216125328313223  1.0000
  C   C55       1.0  0.372348494622971  0.8270403302332207  0.7783874672308503  1.0000
  C   C56       1.0  0.1276515050418712  0.17295967004666052  0.278387467210126  1.0000
  C   C57       1.0  0.14153987196076867  0.4104403742234169  0.7498048975676199  1.0000
  C   C58       1.0  0.3584601290506827  0.5895596252815978  0.2498048975468957  1.0000
  C   C59       1.0  0.6415398716256109  0.08955962552909044  0.2501951024738285  1.0000
  C   C60       1.0  0.8584601287155248  0.9104403747507908  0.7501951021644099  1.0000
  C   C61       1.0  0.8584601287155248  0.5895596252815978  0.2501951024738285  1.0000
  C   C62       1.0  0.6415398716256109  0.4104403742234169  0.7501951021644099  1.0000
  C   C63       1.0  0.3584601290506827  0.9104403747507908  0.7498048975676199  1.0000
  C   C64       1.0  0.14153987196076867  0.08955962552909044  0.2498048975468957  1.0000
  C   C65       1.0  0.05612210706813065  0.7757485225333762  0.5023763194617965  1.0000
  C   C66       1.0  0.44387789259671157  0.22425147774650497  0.0023763194410723137  1.0000
  C   C67       1.0  0.5561221067329728  0.7242514774990124  0.4976236805796519  1.0000
  C   C68       1.0  0.9438778936081629  0.27574852278086887  0.9976236806003761  1.0000
  C   C69       1.0  0.9438778936081629  0.22425147774650497  0.4976236805796519  1.0000
  C   C70       1.0  0.5561221067329728  0.7757485225333762  0.9976236806003761  1.0000
  C   C71       1.0  0.44387789259671157  0.27574852278086887  0.5023763194617965  1.0000
  C   C72       1.0  0.05612210706813065  0.7242514774990124  0.0023763194410723137  1.0000
  C   C73       1.0  0.076195478241049  0.8302539944205314  0.46348025425895123  1.0000
  C   C74       1.0  0.4238045214237932  0.16974600508448331  0.9634802542796754  1.0000
  C   C75       1.0  0.5761954792525003  0.6697460056118573  0.5365197457824973  1.0000
  C   C76       1.0  0.9238045210886354  0.3302539946680241  0.03651974576177298  1.0000
  C   C77       1.0  0.9238045210886354  0.16974600508448331  0.5365197457824973  1.0000
  C   C78       1.0  0.5761954792525003  0.8302539944205314  0.03651974576177298  1.0000
  C   C79       1.0  0.4238045214237932  0.3302539946680241  0.46348025425895123  1.0000
  C   C80       1.0  0.076195478241049  0.6697460056118573  0.9634802542796754  1.0000
  C   C81       1.0  0.17016347619395603  0.9261544809738688  0.46365772280921624  1.0000
  C   C82       1.0  0.3298365234708861  0.07384551930601253  0.9636577228299404  1.0000
  C   C83       1.0  0.6701634758587982  0.5738455190585199  0.5363422772322322  1.0000
  C   C84       1.0  0.8298365244823375  0.42615448122136135  0.036342277211507956  1.0000
  C   C85       1.0  0.8298365244823375  0.07384551930601253  0.5363422772322322  1.0000
  C   C86       1.0  0.6701634758587982  0.9261544809738688  0.036342277211507956  1.0000
  C   C87       1.0  0.3298365234708861  0.42615448122136135  0.46365772280921624  1.0000
  C   C88       1.0  0.17016347619395603  0.5738455190585199  0.9636577228299404  1.0000
  C   C89       1.0  0.2347890351193556  0.9603776383589614  0.5054040705790243  1.0000
  C   C90       1.0  0.2652109645454866  0.03962236114605332  0.005404070558300086  1.0000
  C   C91       1.0  0.7347890361308069  0.5396223608985607  0.49459592913228134  1.0000
  C   C92       1.0  0.7652109642103287  0.46037763860645403  0.9945959291530057  1.0000
  C   C93       1.0  0.7652109642103287  0.03962236114605332  0.49459592913228134  1.0000
  C   C94       1.0  0.7347890361308069  0.9603776383589614  0.9945959291530057  1.0000
  C   C95       1.0  0.2652109645454866  0.46037763860645403  0.5054040705790243  1.0000
  C   C96       1.0  0.2347890351193556  0.5396223608985607  0.005404070558300086  1.0000
  C   C97       1.0  0.2063168490090854  0.8998589918322653  0.5424969840531718  1.0000
  C   C98       1.0  0.2936831506557568  0.10014100844761593  0.04249698403244764  1.0000
  C   C99       1.0  0.7063168486739275  0.6001410082001233  0.45750301598827653  1.0000
  C   C100      1.0  0.7936831516672082  0.39985899207975795  0.9575030160090008  1.0000
  C   C101      1.0  0.7936831516672082  0.10014100844761593  0.45750301598827653  1.0000
  C   C102      1.0  0.7063168486739275  0.8998589918322653  0.9575030160090008  1.0000
  C   C103      1.0  0.2936831506557568  0.39985899207975795  0.5424969840531718  1.0000
  C   C104      1.0  0.2063168490090854  0.6001410082001233  0.04249698403244764  1.0000
  C   C105      1.0  0.1251732660998092  0.9433108895665487  0.3843917587001436  1.0000
  C   C106      1.0  0.37482673356503293  0.056689109938465945  0.8843917587208678  1.0000
  C   C107      1.0  0.6251732657646514  0.5566891104658398  0.6156082413413048  1.0000
  C   C108      1.0  0.8748267345764843  0.44331088981404143  0.1156082413205806  1.0000
  C   C109      1.0  0.8748267345764843  0.056689109938465945  0.6156082413413048  1.0000
  C   C110      1.0  0.6251732657646514  0.9433108895665487  0.1156082413205806  1.0000
  C   C111      1.0  0.37482673356503293  0.44331088981404143  0.3843917587001436  1.0000
  C   C112      1.0  0.1251732660998092  0.5566891104658398  0.8843917587208678  1.0000
  C   C113      1.0  0.28909005391292153  0.08008737176592458  0.4276003647092207  1.0000
  C   C114      1.0  0.2109099470985298  0.9199126285139566  0.9276003647299449  1.0000
  C   C115      1.0  0.7890900535777637  0.4199126287614493  0.5723996353322277  1.0000
  C   C116      1.0  0.710909946763372  0.5800873715184319  0.07239963531150348  1.0000
  C   C117      1.0  0.710909946763372  0.9199126285139566  0.5723996353322277  1.0000
  C   C118      1.0  0.7890900535777637  0.08008737176592458  0.07239963531150348  1.0000
  C   C119      1.0  0.2109099470985298  0.5800873715184319  0.4276003647092207  1.0000
  C   C120      1.0  0.28909005391292153  0.4199126287614493  0.9276003647299449  1.0000
  N   N1        1.0  0.11997839799210701  0.8079437474117502  0.5417236597224023  1.0000
  N   N2        1.0  0.38002160301934435  0.19205625209326446  0.04172365970167811  1.0000
  N   N3        1.0  0.6199783976569492  0.6920562526206384  0.4582763403190461  1.0000
  N   N4        1.0  0.8800216026841865  0.3079437476592429  0.9582763403397703  1.0000
  N   N5        1.0  0.8800216026841865  0.19205625209326446  0.4582763403190461  1.0000
  N   N6        1.0  0.6199783976569492  0.8079437474117502  0.9582763403397703  1.0000
  N   N7        1.0  0.38002160301934435  0.3079437476592429  0.5417236597224023  1.0000
  N   N8        1.0  0.11997839799210701  0.6920562526206384  0.04172365970167811  1.0000
  N   N9        1.0  0.195144011076126  0.9814338220867134  0.4261767559482541  1.0000
  N   N10       1.0  0.3048559885887162  0.018566178193167856  0.9261767559689783  1.0000
  N   N11       1.0  0.6951440107409681  0.5185661779456752  0.5738232440931943  1.0000
  N   N12       1.0  0.8048559896001676  0.48143382233420595  0.0738232440724701  1.0000
  N   N13       1.0  0.8048559896001676  0.018566178193167856  0.5738232440931943  1.0000
  N   N14       1.0  0.6951440107409681  0.9814338220867134  0.0738232440724701  1.0000
  N   N15       1.0  0.3048559885887162  0.48143382233420595  0.4261767559482541  1.0000
  N   N16       1.0  0.195144011076126  0.5185661779456752  0.9261767559689783  1.0000
  F   F1        1.0  0.010846566647522003  0.11684882281483022  0.7055122860892479  1.0000
  F   F2        1.0  0.48915343301732017  0.883151177465051  0.20551228606852365  1.0000
  F   F3        1.0  0.5108465663123641  0.3831511777125436  0.2944877139522005  1.0000
  F   F4        1.0  0.9891534340287715  0.6168488225673375  0.7944877139729247  1.0000
  F   F5        1.0  0.9891534340287715  0.883151177465051  0.2944877139522005  1.0000
  F   F6        1.0  0.5108465663123641  0.11684882281483022  0.7944877139729247  1.0000
  F   F7        1.0  0.48915343301732017  0.6168488225673375  0.7055122860892479  1.0000
  F   F8        1.0  0.010846566647522003  0.3831511777125436  0.20551228606852365  1.0000
  F   F9        1.0  0.15635947568695144  0.3434851373430777  0.8224138852928923  1.0000
  F   F10       1.0  0.34364052397789074  0.6565148629368035  0.32241388527216813  1.0000
  F   F11       1.0  0.6563594766984028  0.1565148631842962  0.17758611474855607  1.0000
  F   F12       1.0  0.843640523642733  0.843485137095585  0.6775861147692803  1.0000
  F   F13       1.0  0.843640523642733  0.6565148629368035  0.17758611474855607  1.0000
  F   F14       1.0  0.6563594766984028  0.3434851373430777  0.6775861147692803  1.0000
  F   F15       1.0  0.34364052397789074  0.843485137095585  0.8224138852928923  1.0000
  F   F16       1.0  0.15635947568695144  0.1565148631842962  0.32241388527216813  1.0000
  I   I1        1.0  0.10643273233728262  0.669243957222348  0.603364400976979  1.0000
  I   I2        1.0  0.39356726732755953  0.3307560430575332  0.10336440095625479  1.0000
  I   I3        1.0  0.6064327320021248  0.8307560428100406  0.39663559906446944  1.0000
  I   I4        1.0  0.8935672669924017  0.16924395669497416  0.8966355990851935  1.0000
  I   I5        1.0  0.8935672669924017  0.3307560430575332  0.39663559906446944  1.0000
  I   I6        1.0  0.6064327320021248  0.669243957222348  0.8966355990851935  1.0000
  I   I7        1.0  0.39356726732755953  0.16924395669497416  0.603364400976979  1.0000
  I   I8        1.0  0.10643273233728262  0.8307560428100406  0.10336440095625479  1.0000
