data_image0
_chemical_formula_structural       H16C12N24O2S2
_chemical_formula_sum              "H16 C12 N24 O2 S2"
_cell_length_a       4.616519956179854
_cell_length_b       11.016575063518571
_cell_length_c       12.34279899670919
_cell_angle_alpha    106.00017732348581
_cell_angle_beta     92.89940434317099
_cell_angle_gamma    98.06054578324246

_space_group_name_H-M_alt    "P 1"
_space_group_IT_number       1

loop_
  _space_group_symop_operation_xyz
  'x, y, z'

loop_
  _atom_site_type_symbol
  _atom_site_label
  _atom_site_symmetry_multiplicity
  _atom_site_fract_x
  _atom_site_fract_y
  _atom_site_fract_z
  _atom_site_occupancy
  H   H1        1.0  0.3886216148717463  0.7629773215442627  0.7207166299366026  1.0000
  H   H2        1.0  0.6113805266449908  0.2370225724683955  0.27928317814953385  1.0000
  H   H3        1.0  0.22612259171025298  0.9019236447072708  0.3686318819256102  1.0000
  H   H4        1.0  0.7738789410307115  0.09807631332095532  0.6313682262439214  1.0000
  H   H5        1.0  0.9127212792122447  0.9227362526887314  0.8906013422856213  1.0000
  H   H6        1.0  0.08727808272120112  0.07726300575758037  0.10939820151890099  1.0000
  H   H7        1.0  0.15205617817882924  0.8445838000261171  0.9587701104190482  1.0000
  H   H8        1.0  0.8479440266973309  0.15541651364355455  0.041230241433369307  1.0000
  H   H9        1.0  0.7816840949966024  0.851593046338689  0.9994934895554257  1.0000
  H   H10       1.0  0.21831526465170087  0.14840642421223582  0.0005061127251860924  1.0000
  H   H11       1.0  0.6939339184750979  0.6167934662448498  0.9779878566201028  1.0000
  H   H12       1.0  0.3060655672790433  0.38320635504829725  0.02201230536669161  1.0000
  H   H13       1.0  0.05366493976975761  0.597007660216212  0.9311836971879598  1.0000
  H   H14       1.0  0.9463349667082339  0.40299169212800134  0.0688169550158903  1.0000
  H   H15       1.0  0.7337588405632701  0.4940479653831198  0.8500049433164966  1.0000
  H   H16       1.0  0.2662409480337232  0.5059515653524472  0.14999543272061142  1.0000
  C   C1        1.0  0.3520657832910179  0.8128062503789376  0.5551279453363352  1.0000
  C   C2        1.0  0.6479370423622698  0.18719430514550572  0.44487212919660335  1.0000
  C   C3        1.0  0.4971478025155954  0.7654645124300212  0.28475992315522614  1.0000
  C   C4        1.0  0.5028538128815992  0.23453570556312694  0.7152400275372179  1.0000
  C   C5        1.0  0.5941115720342895  0.710016876515996  0.37087182687167175  1.0000
  C   C6        1.0  0.4058913979526058  0.28998383139814987  0.6291282688519102  1.0000
  C   C7        1.0  0.5290584129087633  0.7298097832760856  0.4864636054293843  1.0000
  C   C8        1.0  0.47094493663123116  0.2701910766290567  0.5135364377152062  1.0000
  C   C9        1.0  0.9238569564297334  0.8458126883052425  0.9303339275031827  1.0000
  C   C10       1.0  0.07614321586545271  0.1541868382489573  0.06966590622326246  1.0000
  C   C11       1.0  0.8203301811422012  0.5903357982593714  0.9045327712758463  1.0000
  C   C12       1.0  0.17966994589078367  0.4096636776570531  0.09546762614172548  1.0000
  N   N1        1.0  0.30739383954143457  0.8181951558603956  0.6634264564873384  1.0000
  N   N2        1.0  0.6926083092818582  0.18180500048089088  0.33657351882134684  1.0000
  N   N3        1.0  0.1302051329698351  0.9043568403269908  0.6990569876069948  1.0000
  N   N4        1.0  0.8697961004260091  0.0956429980138898  0.3009429055295408  1.0000
  N   N5        1.0  0.06800970629814346  0.950305397588438  0.6147763120671005  1.0000
  N   N6        1.0  0.9319917250245796  0.049694618487782526  0.385223663786333  1.0000
  N   N7        1.0  0.20300963966774263  0.8950167144624832  0.523331316360291  1.0000
  N   N8        1.0  0.7969927313286475  0.10498370972592706  0.47666880444823817  1.0000
  N   N9        1.0  0.3228125709329057  0.8564673762378971  0.29717955260971735  1.0000
  N   N10       1.0  0.6771881621453928  0.1435325213037563  0.7028203686741633  1.0000
  N   N11       1.0  0.2831372563167947  0.8823493955384759  0.19807416431291047  1.0000
  N   N12       1.0  0.7168613366423917  0.11764987985146629  0.8019255595294215  1.0000
  N   N13       1.0  0.42957031017169195  0.8080564993958557  0.12705179849514375  1.0000
  N   N14       1.0  0.5704280449301645  0.19194276889490458  0.8729478457416688  1.0000
  N   N15       1.0  0.5651105033572054  0.7340410300996781  0.17750634127189832  1.0000
  N   N16       1.0  0.43488967998653744  0.2659588101249853  0.8224934420573009  1.0000
  N   N17       1.0  0.7758613113598709  0.6232083217392325  0.34819105087062624  1.0000
  N   N18       1.0  0.22414236303274357  0.3767926808215304  0.65180920123481  1.0000
  N   N19       1.0  0.6678382168592377  0.6538925744919326  0.5314502691849727  1.0000
  N   N20       1.0  0.3321651525854826  0.3461081703594999  0.46854965179111435  1.0000
  N   N21       1.0  0.8099061791094044  0.5936057746554491  0.44584262115712164  1.0000
  N   N22       1.0  0.19009753899442616  0.4063952810690681  0.5541575474782533  1.0000
  N   N23       1.0  0.9944905252438798  0.5092373210648657  0.4515920912257287  1.0000
  N   N24       1.0  0.0055132316347547465  0.490763857958785  0.5484080901773944  1.0000
  O   O1        1.0  0.4657922530913639  0.6971769216536564  0.7981665954935275  1.0000
  O   O2        1.0  0.5342098962911633  0.3028223616982396  0.20183283515817996  1.0000
  S   S1        1.0  0.7990445128026615  0.6996050797546506  0.8216247759362193  1.0000
  S   S2        1.0  0.20095760783993072  0.300393996624502  0.17837523122358526  1.0000
