data_image0
_chemical_formula_structural       H40C36N12O18
_chemical_formula_sum              "H40 C36 N12 O18"
_cell_length_a       6.695788796113704
_cell_length_b       8.086030325797118
_cell_length_c       19.608500323313297
_cell_angle_alpha    95.69166517136661
_cell_angle_beta     96.26859315958852
_cell_angle_gamma    92.16651829427441

_space_group_name_H-M_alt    "P 1"
_space_group_IT_number       1

loop_
  _space_group_symop_operation_xyz
  'x, y, z'

loop_
  _atom_site_type_symbol
  _atom_site_label
  _atom_site_symmetry_multiplicity
  _atom_site_fract_x
  _atom_site_fract_y
  _atom_site_fract_z
  _atom_site_occupancy
  H   H1        1.0  0.5312283549994455  0.5643642870662905  0.8898927785591835  1.0000
  H   H2        1.0  0.4687716452340357  0.4356357134842881  0.11010722131269109  1.0000
  H   H3        1.0  0.751648713546868  0.1640446769159811  0.9382314490747963  1.0000
  H   H4        1.0  0.24835128668661327  0.8359553236345973  0.06176855079707826  1.0000
  H   H5        1.0  0.6146717860383484  0.04998922129667438  0.8197516768781935  1.0000
  H   H6        1.0  0.38532821412121326  0.9500107780095713  0.18024832293986232  1.0000
  H   H7        1.0  0.8889313764131845  0.9795933494677211  0.1747568527238141  1.0000
  H   H8        1.0  0.11106862381519672  0.02040665108243542  0.8252431476578329  1.0000
  H   H9        1.0  0.01349808434880089  0.11243228496129166  0.2905379654702951  1.0000
  H   H10       1.0  0.9865019158056608  0.887567714344532  0.7094620348575332  1.0000
  H   H11       1.0  0.9639607204917726  0.44597969905117285  0.08978165345166868  1.0000
  H   H12       1.0  0.03603927966778908  0.5540203002550729  0.910218346366387  1.0000
  H   H13       1.0  0.9206345999135208  0.4989224409690659  0.427288803719101  1.0000
  H   H14       1.0  0.07936540031486031  0.5010775595810906  0.5727111966625461  1.0000
  H   H15       1.0  0.825128038786057  0.32022414793032283  0.37070949735007275  1.0000
  H   H16       1.0  0.17487196137350453  0.6797758513759228  0.629290502467983  1.0000
  H   H17       1.0  0.1811237445940494  0.21927573334248565  0.3756938094320546  1.0000
  H   H18       1.0  0.8188762556394318  0.780724267208093  0.6243061904398199  1.0000
  H   H19       1.0  0.3206296815694427  0.39132057309256996  0.48490535511826277  1.0000
  H   H20       1.0  0.6793703186640384  0.6086794274580085  0.5150946447536118  1.0000
  H   H21       1.0  0.46696159035426815  0.4062108507660328  0.4150796812015049  1.0000
  H   H22       1.0  0.5330384098792131  0.5937891497845457  0.5849203186703696  1.0000
  H   H23       1.0  0.18839400266305917  0.5524302233654423  0.32419408230983016  1.0000
  H   H24       1.0  0.8116059974914024  0.44756977594038116  0.6758059180179982  1.0000
  H   H25       1.0  0.920566224717168  0.15812226969960794  0.4534416079678288  1.0000
  H   H26       1.0  0.0794337740138604  0.841877730850937  0.5465583918463023  1.0000
  H   H27       1.0  0.2198657805812427  0.6533005049899512  0.47122017117386256  1.0000
  H   H28       1.0  0.780134218149786  0.3466994955605936  0.5287798286402685  1.0000
  H   H29       1.0  0.8622158733378241  0.7447987492615687  0.30398864088497773  1.0000
  H   H30       1.0  0.13778412689565717  0.25520125128900967  0.6960113589868967  1.0000
  H   H31       1.0  0.6135383034788628  0.8054953496892441  0.2752421139005535  1.0000
  H   H32       1.0  0.38646169674951836  0.1945046508609123  0.7247578864810936  1.0000
  H   H33       1.0  0.6418532852935579  0.6632202339271812  0.33660397417041704  1.0000
  H   H34       1.0  0.3581467149348234  0.33677976662297515  0.6633960262112301  1.0000
  H   H35       1.0  0.56844414404653  0.06977749214898928  0.4441592516718777  1.0000
  H   H36       1.0  0.43155585461057905  0.9302225071572229  0.5558407480884345  1.0000
  H   H37       1.0  0.4673485058359942  0.8583568778921515  0.4220957919098468  1.0000
  H   H38       1.0  0.5326514943235675  0.1416431214140942  0.577904207908209  1.0000
  H   H39       1.0  0.4366929598966989  0.0015276423353648716  0.36056497203160986  1.0000
  H   H40       1.0  0.5633070402628629  0.9984723569708809  0.6394350277864459  1.0000
  C   C1        1.0  0.5618655323519468  0.8014839278760673  0.8485936030275822  1.0000
  C   C2        1.0  0.4381344678815345  0.19851607267451127  0.1514063968442923  1.0000
  C   C3        1.0  0.577282144651599  0.6956490549040036  0.9006364377686458  1.0000
  C   C4        1.0  0.4227178555028626  0.30435094440182014  0.09936356255918254  1.0000
  C   C5        1.0  0.650260101230735  0.7636623869523216  0.9668329460647032  1.0000
  C   C6        1.0  0.34973989900274616  0.23633761359825683  0.03316705380717131  1.0000
  C   C7        1.0  0.7128060649900082  0.9334572917898696  0.9821992215822577  1.0000
  C   C8        1.0  0.2871939351695535  0.06654270751637616  0.017800778235798044  1.0000
  C   C9        1.0  0.6986502201077411  0.03442110884209461  0.927493427336383  1.0000
  C   C10       1.0  0.3013497801257402  0.9655788917084839  0.07250657253549153  1.0000
  C   C11       1.0  0.6226190188128026  0.9704224730361319  0.8613964726339157  1.0000
  C   C12       1.0  0.37738098134165915  0.029577526269691623  0.13860352769391276  1.0000
  C   C13       1.0  0.9173880055255679  0.2060305076837038  0.12485814792214037  1.0000
  C   C14       1.0  0.08261199463399384  0.793969491622542  0.8751418518959154  1.0000
  C   C15       1.0  0.9344792553293658  0.11147047512442457  0.18257143458170197  1.0000
  C   C16       1.0  0.06552074482509579  0.8885295241813991  0.8174285657461263  1.0000
  C   C17       1.0  0.005395969561792608  0.1860471596624559  0.2467903653521817  1.0000
  C   C18       1.0  0.9946040305977691  0.8139528396437897  0.7532096344658741  1.0000
  C   C19       1.0  0.07114569271795797  0.3583982448495647  0.25792863814505457  1.0000
  C   C20       1.0  0.9288543074416038  0.6416017544566811  0.7420713616730013  1.0000
  C   C21       1.0  0.056634204911336916  0.4504027908424392  0.19848383830911356  1.0000
  C   C22       1.0  0.9433657953221443  0.5495972097081393  0.801516161562761  1.0000
  C   C23       1.0  0.9782191660989102  0.37437988616615314  0.13397794598074061  1.0000
  C   C24       1.0  0.021780834060651497  0.6256201131400926  0.8660220538373153  1.0000
  C   C25       1.0  0.9448497218374315  0.3672530452303387  0.41205380169179945  1.0000
  C   C26       1.0  0.05515027832213011  0.6327469540759071  0.5879461981262563  1.0000
  C   C27       1.0  0.15077590343479563  0.3520420869684901  0.3844300540512885  1.0000
  C   C28       1.0  0.849224096719666  0.6479579123373336  0.6155699462765398  1.0000
  C   C29       1.0  0.3235482557362066  0.4387210625795897  0.4342661292588105  1.0000
  C   C30       1.0  0.676451744418255  0.561278936726234  0.5657338710690178  1.0000
  C   C31       1.0  0.714558846645012  0.7736703752432421  0.31957325375072304  1.0000
  C   C32       1.0  0.2854411535884693  0.22632962530733636  0.6804267461211515  1.0000
  C   C33       1.0  0.7318387063138575  0.9140183621746134  0.3760788552470452  1.0000
  C   C34       1.0  0.26816129391962373  0.08598163837596515  0.6239211446248293  1.0000
  C   C35       1.0  0.5410835430439078  0.96636418450244  0.40333134189905495  1.0000
  C   C36       1.0  0.4589164571895735  0.0336358160481386  0.5966686579728195  1.0000
  N   N1        1.0  0.4854642542309773  0.7323748126362958  0.7787056299104796  1.0000
  N   N2        1.0  0.514535746002504  0.2676251879142828  0.22129436996139484  1.0000
  N   N3        1.0  0.6702937946050088  0.6501254436484873  0.020657662742602344  1.0000
  N   N4        1.0  0.3297062056284723  0.3498745569020913  0.9793423371292721  1.0000
  N   N5        1.0  0.7953118069737845  0.9889175850257851  0.049603406351251336  1.0000
  N   N6        1.0  0.2046881932545967  0.011082415524371347  0.9503965940303956  1.0000
  N   N7        1.0  0.8384384068249006  0.14567263311355458  0.05847610464795308  1.0000
  N   N8        1.0  0.1615615934034807  0.8543273674366019  0.941523895733694  1.0000
  N   N9        1.0  0.1457171637784775  0.4282986674593465  0.3205649619741134  1.0000
  N   N10       1.0  0.8542828363810843  0.5717013318468992  0.6794350378439423  1.0000
  N   N11       1.0  0.1206144927193578  0.6233015825239203  0.20239830941663453  1.0000
  N   N12       1.0  0.8793855074351038  0.37669841678190324  0.7976016909111938  1.0000
  O   O1        1.0  0.42997799989244545  0.5824702647109926  0.7687479929529714  1.0000
  O   O2        1.0  0.5700219987646635  0.41752973459521947  0.23125200680734095  1.0000
  O   O3        1.0  0.47980876801196665  0.8268808229670151  0.7320638639293254  1.0000
  O   O4        1.0  0.5201912322215145  0.17311917758356335  0.2679361359425491  1.0000
  O   O5        1.0  0.6190021378061386  0.6946845431651122  0.0780844951010924  1.0000
  O   O6        1.0  0.38099786091978993  0.30531545738501065  0.9219155052228112  1.0000
  O   O7        1.0  0.7383092878038247  0.5126326113267936  0.003919236934043998  1.0000
  O   O8        1.0  0.2616907108481844  0.48736738797899637  0.9960807633360409  1.0000
  O   O9        1.0  0.9369744750173141  0.27898880709100704  0.4713515614455226  1.0000
  O   O10       1.0  0.06302552514224762  0.7210111922152387  0.5286484383725331  1.0000
  O   O11       1.0  0.31560589406729445  0.615008425284895  0.4380944700409971  1.0000
  O   O12       1.0  0.6843941061661868  0.3849915752656835  0.5619055298308774  1.0000
  O   O13       1.0  0.19077141566692962  0.6991178843822475  0.26003072001013855  1.0000
  O   O14       1.0  0.8092285844875319  0.300882114923576  0.7399692803176898  1.0000
  O   O15       1.0  0.10485127100481512  0.6941154364385655  0.1487543208137892  1.0000
  O   O16       1.0  0.8951487292286662  0.3058845641120131  0.8512456790580852  1.0000
  O   O17       1.0  0.8986602369397406  0.9815851969147119  0.3990194895814221  1.0000
  O   O18       1.0  0.10133976329374068  0.01841480363586658  0.6009805102904524  1.0000
