data_image0
_chemical_formula_structural       H22C30N4O8Br2
_chemical_formula_sum              "H22 C30 N4 O8 Br2"
_cell_length_a       5.021554413543194
_cell_length_b       11.387188418648895
_cell_length_c       12.554558032617113
_cell_angle_alpha    75.91575316934365
_cell_angle_beta     84.03019745062313
_cell_angle_gamma    80.14748713172581

_space_group_name_H-M_alt    "P 1"
_space_group_IT_number       1

loop_
  _space_group_symop_operation_xyz
  'x, y, z'

loop_
  _atom_site_type_symbol
  _atom_site_label
  _atom_site_symmetry_multiplicity
  _atom_site_fract_x
  _atom_site_fract_y
  _atom_site_fract_z
  _atom_site_occupancy
  H   H1        1.0  0.060433787029787495  0.8837200461335672  0.9722358939877248  1.0000
  H   H2        1.0  0.9395662137954622  0.11627995400910146  0.027764106151582636  1.0000
  H   H3        1.0  0.7745183992463581  0.9566749713168128  0.899202237576122  1.0000
  H   H4        1.0  0.2254816019158  0.043325027934380575  0.10079776256380475  1.0000
  H   H5        1.0  0.31344777879240965  0.5038810364533882  0.9280917100976819  1.0000
  H   H6        1.0  0.6865522224672976  0.49611896300799446  0.071908289219407  1.0000
  H   H7        1.0  0.6359898599554147  0.6338362875474577  0.7262826260765247  1.0000
  H   H8        1.0  0.36401013887489087  0.36616371259549235  0.2737173740771824  1.0000
  H   H9        1.0  0.9839991570234494  0.4622722770109979  0.8077586605920625  1.0000
  H   H10       1.0  0.016000841806856212  0.5377277231319523  0.1922413395616444  1.0000
  H   H11       1.0  0.2614106603733191  0.6919199398489739  0.9775644003529002  1.0000
  H   H12       1.0  0.7385893404519305  0.3080800602936947  0.022435599786407336  1.0000
  H   H13       1.0  0.7701118153587239  0.9002977370078162  0.16699484235351209  1.0000
  H   H14       1.0  0.22988818347158174  0.09970226313513376  0.833005157800195  1.0000
  H   H15       1.0  0.07180004535982365  0.9548934726662953  0.2917028008694631  1.0000
  H   H16       1.0  0.928199955465426  0.045106527476373205  0.7082971992698445  1.0000
  H   H17       1.0  0.9061327478083098  0.5767141239847431  0.5720856600235801  1.0000
  H   H18       1.0  0.09386725111954473  0.4232858763683962  0.42791433930728906  1.0000
  H   H19       1.0  0.20826318233428903  0.7145716299445297  0.6104799782351152  1.0000
  H   H20       1.0  0.791736816832925  0.2854283693069453  0.3895200219192111  1.0000
  H   H21       1.0  0.284941716001511  0.9051396550185248  0.47117709797885127  1.0000
  H   H22       1.0  0.7150582849212876  0.09486034533433318  0.5288229013376182  1.0000
  C   C1        1.0  0.9263652931915175  0.7795518856015988  0.8824799773964743  1.0000
  C   C2        1.0  0.07363470763373198  0.22044811454106986  0.11752002274283316  1.0000
  C   C3        1.0  0.7548487976022396  0.7613332255801981  0.8063416640533221  1.0000
  C   C4        1.0  0.24515120156497455  0.2386667736712767  0.19365833610100416  1.0000
  C   C5        1.0  0.1473220183250745  0.5730497516964435  0.8938404837344694  1.0000
  C   C6        1.0  0.8526779825001752  0.42695024844622514  0.10615951640483809  1.0000
  C   C7        1.0  0.7727599108646929  0.6484591710960718  0.7818528457680272  1.0000
  C   C8        1.0  0.22724008796561268  0.3515408290468783  0.21814715438567983  1.0000
  C   C9        1.0  0.9716633222907282  0.5513307560550618  0.8264451219764065  1.0000
  C   C10       1.0  0.028336678534521573  0.44866924408760683  0.1735548781629011  1.0000
  C   C11       1.0  0.4325271797162099  0.7693626460881932  0.10928868690298515  1.0000
  C   C12       1.0  0.5674728191140956  0.23063735405475697  0.8907113132507217  1.0000
  C   C13       1.0  0.735935712305757  0.8199777887793914  0.2316259476982153  1.0000
  C   C14       1.0  0.26406428652454844  0.1800222113635587  0.7683740524554917  1.0000
  C   C15       1.0  0.5700161091257748  0.7438095594975843  0.21530996501631644  1.0000
  C   C16       1.0  0.4299838900414392  0.2561904397538905  0.7846900351380098  1.0000
  C   C17       1.0  0.8650506408995909  0.7974132012883112  0.33228689880531215  1.0000
  C   C18       1.0  0.13494936026256732  0.2025867979628823  0.6677131013346147  1.0000
  C   C19       1.0  0.5189173515604054  0.6368708706302357  0.30147039511598117  1.0000
  C   C20       1.0  0.4810826492648441  0.363129129512433  0.6985296050233263  1.0000
  C   C21       1.0  0.033955969246120404  0.8741160034519309  0.35486149881971374  1.0000
  C   C22       1.0  0.9660440319160376  0.12588399579926246  0.6451385013202131  1.0000
  C   C23       1.0  0.821162628355643  0.6917161384758043  0.4134824557780242  1.0000
  C   C24       1.0  0.17883737280651496  0.3082838607753891  0.5865175443619027  1.0000
  C   C25       1.0  0.9434749329995217  0.6607841415311795  0.5132928640145896  1.0000
  C   C26       1.0  0.05652506616769244  0.33921585772029533  0.48670713613973676  1.0000
  C   C27       1.0  0.10956575044158419  0.7382358043423404  0.5331286664939013  1.0000
  C   C28       1.0  0.8904342487256299  0.26176419490913444  0.46687133366042494  1.0000
  C   C29       1.0  0.15368400233694468  0.8455113699948932  0.4545550529325308  1.0000
  C   C30       1.0  0.8463159985858539  0.15448863035796484  0.5454449463839388  1.0000
  N   N1        1.0  0.12016441902055011  0.682797918670809  0.9202144209981026  1.0000
  N   N2        1.0  0.8798355818046995  0.31720208147185963  0.07978557914120493  1.0000
  N   N3        1.0  0.9187728381136403  0.8811378114804751  0.9185466909694175  1.0000
  N   N4        1.0  0.08122716071666522  0.11886218866247507  0.08145330918428946  1.0000
  O   O1        1.0  0.6579994541723474  0.6142246464860649  0.3965136497214424  1.0000
  O   O2        1.0  0.3420005469898107  0.3857753527651284  0.6034863504184844  1.0000
  O   O3        1.0  0.45778111442214614  0.6806161414499721  0.061840158136769185  1.0000
  O   O4        1.0  0.5422188844081594  0.3193838586929781  0.9381598420169378  1.0000
  O   O5        1.0  0.305630018375222  0.8758725091334072  0.07400535739131943  1.0000
  O   O6        1.0  0.6943699824500276  0.12412749100926136  0.9259946427479882  1.0000
  O   O7        1.0  0.36357230755616854  0.5655266767007697  0.29973947171075743  1.0000
  O   O8        1.0  0.6364276912741371  0.4344733234421804  0.7002605284429495  1.0000
  Br  Br1       1.0  0.5061906236758753  0.8942554003796049  0.7350304012209369  1.0000
  Br  Br2       1.0  0.4938093771493743  0.10574459976306357  0.26496959891837063  1.0000
