data_image0
_chemical_formula_structural       H96C84N40O16Cl8
_chemical_formula_sum              "H96 C84 N40 O16 Cl8"
_cell_length_a       11.458123396539232
_cell_length_b       7.200619723021965
_cell_length_c       28.865896390607485
_cell_angle_alpha    90.0
_cell_angle_beta     91.70099096378942
_cell_angle_gamma    90.0

_space_group_name_H-M_alt    "P 1"
_space_group_IT_number       1

loop_
  _space_group_symop_operation_xyz
  'x, y, z'

loop_
  _atom_site_type_symbol
  _atom_site_label
  _atom_site_symmetry_multiplicity
  _atom_site_fract_x
  _atom_site_fract_y
  _atom_site_fract_z
  _atom_site_occupancy
  H   H1        1.0  0.7024600823912772  0.11292378590696472  0.34146297089439204  1.0000
  H   H2        1.0  0.7975399171532583  0.6129237856971241  0.15853702881018225  1.0000
  H   H3        1.0  0.29753991676316066  0.887076213673354  0.6585370291339164  1.0000
  H   H4        1.0  0.20246008285025838  0.38707621388319463  0.841462970872415  1.0000
  H   H5        1.0  0.8794240907600666  0.8801283255853266  0.46189049977534796  1.0000
  H   H6        1.0  0.6205759088081957  0.3801283257951672  0.038109500275807486  1.0000
  H   H7        1.0  0.12057590926717679  0.11987167399499221  0.5381095002538304  1.0000
  H   H8        1.0  0.3794240912190478  0.6198716737851516  0.9618904997533709  1.0000
  H   H9        1.0  0.8054613704060934  0.15830598946302984  0.41789661695584684  1.0000
  H   H10       1.0  0.6945386300349745  0.6583059892531892  0.08210338309617854  1.0000
  H   H11       1.0  0.19453862962115007  0.841694010117289  0.5821033830733315  1.0000
  H   H12       1.0  0.30546136999226897  0.34169401032712954  0.9178966169329998  1.0000
  H   H13       1.0  0.45893379180478505  0.7066098816095582  0.15679909061092637  1.0000
  H   H14       1.0  0.041066208645239514  0.20660988181939877  0.34320090940409775  1.0000
  H   H15       1.0  0.5410662082224584  0.29339011797076064  0.843200909418252  1.0000
  H   H16       1.0  0.9589337913820041  0.79339011776092  0.6567990906250806  1.0000
  H   H17       1.0  0.5847096455853292  0.8389003394647916  0.14143249408002265  1.0000
  H   H18       1.0  0.9152903548557388  0.33890033967463223  0.3585675059720027  1.0000
  H   H19       1.0  0.41529035444191426  0.16109966011552718  0.8585675059491557  1.0000
  H   H20       1.0  0.08470964517150474  0.6610996599056865  0.6414324940571755  1.0000
  H   H21       1.0  0.3940355662374075  0.6066485480456297  0.30994777161172893  1.0000
  H   H22       1.0  0.105964434212617  0.10664854825547042  0.19005222840329516  1.0000
  H   H23       1.0  0.605964433789836  0.39335145153468903  0.6900522284174494  1.0000
  H   H24       1.0  0.8940355658146264  0.8933514513248484  0.8099477716258832  1.0000
  H   H25       1.0  0.5090666389045252  0.628467532527991  0.3520347376430673  1.0000
  H   H26       1.0  0.9909333615365428  0.12846753273783157  0.14796526240895808  1.0000
  H   H27       1.0  0.4909333611227183  0.3715324670523278  0.647965262386111  1.0000
  H   H28       1.0  0.009066638490700687  0.8715324668424872  0.8520347376202203  1.0000
  H   H29       1.0  0.7243233873553769  0.9251368043644262  0.19343394381965484  1.0000
  H   H30       1.0  0.7756766121891586  0.4251368045742668  0.3065660558849194  1.0000
  H   H31       1.0  0.27567661264813986  0.07486319521589263  0.8065660558629424  1.0000
  H   H32       1.0  0.22432338783808473  0.574863195006052  0.6934339441442589  1.0000
  H   H33       1.0  0.19637936847017873  0.4261989603739332  0.3685470041509534  1.0000
  H   H34       1.0  0.30362063110704024  0.9261989601640925  0.13145299586320083  1.0000
  H   H35       1.0  0.8036206315570648  0.5738010392063857  0.631452995878225  1.0000
  H   H36       1.0  0.6963793689202034  0.07380103941622623  0.8685470041659775  1.0000
  H   H37       1.0  0.1543669019456524  0.7843322557283688  0.48647505727406615  1.0000
  H   H38       1.0  0.3456330985043721  0.28433225593820943  0.013524942740958027  1.0000
  H   H39       1.0  0.8456330980815912  0.21566774385194998  0.5135249427551123  1.0000
  H   H40       1.0  0.6543669015228714  0.7156677436421094  0.9864750572882202  1.0000
  H   H41       1.0  0.19615810107935605  0.4719358514566614  0.45417548945831226  1.0000
  H   H42       1.0  0.3038418993706685  0.9719358526355901  0.045824510556711856  1.0000
  H   H43       1.0  0.8038418989478876  0.5280641481236574  0.5458245105708661  1.0000
  H   H44       1.0  0.696158100656575  0.028064148333498042  0.9541754894724664  1.0000
  H   H45       1.0  0.05620644664173279  0.7293154800564907  0.14322460450856506  1.0000
  H   H46       1.0  0.4437935538082917  0.2293154802663314  0.3567753955064591  1.0000
  H   H47       1.0  0.9437935533855106  0.270684519523828  0.8567753955206132  1.0000
  H   H48       1.0  0.5562064462189518  0.7706845193139874  0.6432246045227192  1.0000
  H   H49       1.0  0.20249320737526774  0.6348723354163519  0.14826580832379593  1.0000
  H   H50       1.0  0.2975067930747568  0.13487233562619255  0.3517341916912282  1.0000
  H   H51       1.0  0.7975067926519758  0.36512766555273624  0.8517341917053823  1.0000
  H   H52       1.0  0.7024932069524867  0.8651276653428956  0.6482658083379501  1.0000
  H   H53       1.0  0.8771437340561634  0.8431241050807927  0.28395126392801906  1.0000
  H   H54       1.0  0.6228562663611779  0.34312410529063336  0.21604873577742514  1.0000
  H   H55       1.0  0.12285626597108011  0.15687589449952602  0.7160487361011593  1.0000
  H   H56       1.0  0.3771437336423389  0.6568758942896854  0.783951263905172  1.0000
  H   H57       1.0  0.9584627999061915  0.8137707274368898  0.33629554777090326  1.0000
  H   H58       1.0  0.541537199638344  0.3137707276467304  0.16370445193367103  1.0000
  H   H59       1.0  0.041537200097325123  0.18622927214342902  0.6637044519116939  1.0000
  H   H60       1.0  0.45846280038889947  0.6862292719335884  0.8362955480955073  1.0000
  H   H61       1.0  0.2945844303715231  0.570502621721004  0.2131871188303552  1.0000
  H   H62       1.0  0.20541557007850147  0.07050262054207516  0.28681288118466897  1.0000
  H   H63       1.0  0.7054155696557205  0.42949737924808423  0.7868128811988232  1.0000
  H   H64       1.0  0.794584429948742  0.9294973790382436  0.7131871188445095  1.0000
  H   H65       1.0  0.5631607079362004  0.2842037461660517  0.4240730123805112  1.0000
  H   H66       1.0  0.9368392916320619  0.7842037459562111  0.07592698767064428  1.0000
  H   H67       1.0  0.436839292091043  0.7157962548030365  0.5759269876486672  1.0000
  H   H68       1.0  0.0631607083951816  0.2157962536241077  0.924073012358534  1.0000
  H   H69       1.0  0.6156181244635262  0.38160653328416555  0.3796851478515113  1.0000
  H   H70       1.0  0.8843818751047363  0.8816065330743249  0.12031485219964419  1.0000
  H   H71       1.0  0.38438187556371733  0.6183934662961533  0.6203148521776671  1.0000
  H   H72       1.0  0.11561812492250724  0.11839346650599389  0.8796851478295341  1.0000
  H   H73       1.0  0.6678938519767039  0.807060278634058  0.5014314975066537  1.0000
  H   H74       1.0  0.8321061485005641  0.3070602788438986  0.9985685025375486  1.0000
  H   H75       1.0  0.33210614805053956  0.19293972094626086  0.49856850252252455  1.0000
  H   H76       1.0  0.16789385152667946  0.6929397221251895  0.0014314974916296412  1.0000
  H   H77       1.0  0.6283173504847117  0.5875382012569996  0.47929445072045607  1.0000
  H   H78       1.0  0.8716826490835508  0.08753820146684023  0.020705549330699416  1.0000
  H   H79       1.0  0.37168264954253183  0.4124617983233192  0.5207055493087223  1.0000
  H   H80       1.0  0.12831735007088724  0.9124617981134786  0.979294450697609  1.0000
  H   H81       1.0  0.6027826264120728  0.6415894739211613  0.5390949376359437  1.0000
  H   H82       1.0  0.8972173740651952  0.1415894741310018  0.9609050624082587  1.0000
  H   H83       1.0  0.39721737361517073  0.3584105256591576  0.4609050623932346  1.0000
  H   H84       1.0  0.10278262596204822  0.8584105268380864  0.03909493762091962  1.0000
  H   H85       1.0  0.44780658070282003  0.6855780946488044  0.42192385599509  1.0000
  H   H86       1.0  0.05219341974720452  0.18557809485864496  0.07807614401993415  1.0000
  H   H87       1.0  0.5521934193244236  0.31442190493151445  0.5780761440340884  1.0000
  H   H88       1.0  0.9478065802800388  0.8144219061104432  0.9219238560092441  1.0000
  H   H89       1.0  0.5425746435233717  0.8807132794034727  0.42437296435050487  1.0000
  H   H90       1.0  0.9574253560448907  0.38071327961331336  0.07562703570065063  1.0000
  H   H91       1.0  0.45742535650387184  0.11928672017684608  0.5756270356786735  1.0000
  H   H92       1.0  0.04257464310954724  0.6192867199670056  0.9243729643276578  1.0000
  H   H93       1.0  0.38832488689909056  0.9084638325067186  0.43416091288218867  1.0000
  H   H94       1.0  0.11167511355093397  0.4084638327165591  0.06583908713283547  1.0000
  H   H95       1.0  0.6116751131281529  0.0915361670736003  0.5658390871469897  1.0000
  H   H96       1.0  0.8883248864525828  0.5915361668637596  0.9341609125497617  1.0000
  C   C1        1.0  0.746717806587767  0.6527388739850639  0.36938205786732836  1.0000
  C   C2        1.0  0.753282193853301  0.1527388741949045  0.13061794218469702  1.0000
  C   C3        1.0  0.2532821934394765  0.34726112559525485  0.6306179421618499  1.0000
  C   C4        1.0  0.24671780617394254  0.8472611253854143  0.8693820578444813  1.0000
  C   C5        1.0  0.5661024747404995  0.7926671605433133  0.21006936304943377  1.0000
  C   C6        1.0  0.9338975248277631  0.2926671607531539  0.28993063700172167  1.0000
  C   C7        1.0  0.43389752528674413  0.2073328390370055  0.7899306369797446  1.0000
  C   C8        1.0  0.06610247432667493  0.7073328388271649  0.7100693630265867  1.0000
  C   C9        1.0  0.7097328649335009  0.8149816648749719  0.3445832677086938  1.0000
  C   C10       1.0  0.7902671355075671  0.3149816636960432  0.15541673234333162  1.0000
  C   C11       1.0  0.2902671350937427  0.18501833609411622  0.6554167323204847  1.0000
  C   C12       1.0  0.2097328645196764  0.6850183358842756  0.8445832676858467  1.0000
  C   C13       1.0  0.6573179657474326  0.7976959290928074  0.29744461550676  1.0000
  C   C14       1.0  0.8426820346936355  0.2976959293026481  0.20255538454526542  1.0000
  C   C15       1.0  0.3426820342798109  0.20230407048751134  0.7025553845224184  1.0000
  C   C16       1.0  0.15731796533360812  0.7023040716664402  0.7974446154839129  1.0000
  C   C17       1.0  0.5424482533549793  0.7195622028801583  0.2864649122414104  1.0000
  C   C18       1.0  0.9575517470860886  0.21956220308999885  0.21353508781061503  1.0000
  C   C19       1.0  0.45755174667226417  0.2804377980889299  0.713535087787768  1.0000
  C   C20       1.0  0.042448252941154896  0.7804377978790893  0.7864649122185634  1.0000
  C   C21       1.0  0.7322837927162495  0.9938126460310742  0.3618451012091149  1.0000
  C   C22       1.0  0.767716206852013  0.49381264485214554  0.13815489884204055  1.0000
  C   C23       1.0  0.2677162073109941  0.006187354938013868  0.6381548988200635  1.0000
  C   C24       1.0  0.23228379317523054  0.5061873547281732  0.8618451011871378  1.0000
  C   C25       1.0  0.8093881737814597  0.6866143929518715  0.4119072430008429  1.0000
  C   C26       1.0  0.6906118266596085  0.1866143931617122  0.08809275705118247  1.0000
  C   C27       1.0  0.19061182624578404  0.3133856066284472  0.5880927570283354  1.0000
  C   C28       1.0  0.309388173367635  0.8133856064186067  0.9119072429779959  1.0000
  C   C29       1.0  0.8307612043268062  0.8642166770873949  0.4291283335511707  1.0000
  C   C30       1.0  0.6692387952414561  0.3642166772972355  0.07087166649998478  1.0000
  C   C31       1.0  0.1692387957004372  0.1357833224929239  0.5708716664780077  1.0000
  C   C32       1.0  0.3307612047857874  0.6357833236718528  0.9291283335291936  1.0000
  C   C33       1.0  0.7907995490187816  0.019247196120757735  0.40428559354828886  1.0000
  C   C34       1.0  0.7092004513985596  0.5192471959109172  0.09571440615715532  1.0000
  C   C35       1.0  0.2092004509847351  0.9807528034595611  0.5957144061343083  1.0000
  C   C36       1.0  0.29079954862868396  0.48075280366940165  0.904285593872023  1.0000
  C   C37       1.0  0.04339707660590396  0.7450792273957771  0.2777508879313058  1.0000
  C   C38       1.0  0.4566029238441206  0.24507922621684836  0.22224911208371828  1.0000
  C   C39       1.0  0.9566029234213396  0.25492077357331105  0.7222491120978725  1.0000
  C   C40       1.0  0.5433970761831228  0.7549207733634704  0.7777508879454601  1.0000
  C   C41       1.0  0.12516428434932203  0.6738140752645881  0.2088762833723275  1.0000
  C   C42       1.0  0.3748357161007025  0.17381407547442876  0.2911237166426966  1.0000
  C   C43       1.0  0.8748357156779214  0.3261859243157306  0.7911237166568509  1.0000
  C   C44       1.0  0.625164283926541  0.8261859241058901  0.7088762833864818  1.0000
  C   C45       1.0  0.14901444257619792  0.8985736435036376  0.3707601622178155  1.0000
  C   C46       1.0  0.3509855569772943  0.3985736437134781  0.12923983744975745  1.0000
  C   C47       1.0  0.8509855574273187  0.10142635746545065  0.6292398374647816  1.0000
  C   C48       1.0  0.6490144430262225  0.60142635725561  0.8707601622328397  1.0000
  C   C49       1.0  0.1642869844591368  0.7146521630002628  0.3530867957638333  1.0000
  C   C50       1.0  0.33571301599088776  0.21465216321010336  0.14691320425119087  1.0000
  C   C51       1.0  0.8357130155681067  0.2853478365800561  0.646913204265345  1.0000
  C   C52       1.0  0.6642869840363558  0.7853478363702154  0.8530867957779875  1.0000
  C   C53       1.0  0.152276049658696  0.6920896814015516  0.30241892856116864  1.0000
  C   C54       1.0  0.347723949918523  0.19208968161139214  0.19758107145298556  1.0000
  C   C55       1.0  0.8477239503685475  0.3079103195675366  0.6975810714680096  1.0000
  C   C56       1.0  0.6522760501087206  0.807910319357696  0.8024189285761927  1.0000
  C   C57       1.0  0.14031864980380457  0.9136426395308936  0.41966508197205216  1.0000
  C   C58       1.0  0.35968134977341437  0.41364263974073423  0.08033491804210202  1.0000
  C   C59       1.0  0.859681350223439  0.08635736004942518  0.5803349180571261  1.0000
  C   C60       1.0  0.6403186502538291  0.5863573598395846  0.9196650819870764  1.0000
  C   C61       1.0  0.18361725285004632  0.5640566348774548  0.3830648380539261  1.0000
  C   C62       1.0  0.31638274672717265  0.0640566350872954  0.11693516196022812  1.0000
  C   C63       1.0  0.8163827471771972  0.435943364702864  0.6169351619752522  1.0000
  C   C64       1.0  0.6836172533000708  0.9359433644930234  0.8830648380689502  1.0000
  C   C65       1.0  0.15762291600438888  0.7634472075263112  0.4491800530335892  1.0000
  C   C66       1.0  0.3423770835728301  0.2634472077361519  0.05081994698056494  1.0000
  C   C67       1.0  0.8423770840228547  0.23655279205400753  0.5508199469955891  1.0000
  C   C68       1.0  0.6576229164544134  0.736552791844167  0.9491800530486134  1.0000
  C   C69       1.0  0.18203171478664862  0.588723424241726  0.4308833673933926  1.0000
  C   C70       1.0  0.3179682847905704  0.08872342445156664  0.06911663262076156  1.0000
  C   C71       1.0  0.8179682852405948  0.41127657533859274  0.5691166326357857  1.0000
  C   C72       1.0  0.6820317152366732  0.9112765751287523  0.9308833674084168  1.0000
  C   C73       1.0  0.48564454431087734  0.7763610973825825  0.48991847329730015  1.0000
  C   C74       1.0  0.014355455266341601  0.2763610975924231  0.010081526716854122  1.0000
  C   C75       1.0  0.5143554557163662  0.22363890219773627  0.5100815267318782  1.0000
  C   C76       1.0  0.9856445447609019  0.723638903376665  0.9899184733123242  1.0000
  C   C77       1.0  0.602196754526418  0.6959623647361322  0.5036843512846061  1.0000
  C   C78       1.0  0.8978032450543177  0.19596236355720348  0.9963156484121454  1.0000
  C   C79       1.0  0.3978032454770987  0.30403763623295593  0.4963156483979911  1.0000
  C   C80       1.0  0.10219675494919903  0.8040376360231154  0.0036843512704518326  1.0000
  C   C81       1.0  0.46475106393823995  0.8191549640014237  0.4395337692383812  1.0000
  C   C82       1.0  0.03524893563897907  0.3191549642112645  0.06046623077577305  1.0000
  C   C83       1.0  0.5352489360890036  0.18084503557889495  0.5604662307907972  1.0000
  C   C84       1.0  0.9647510643882645  0.6808450353690544  0.9395337692534053  1.0000
  N   N1        1.0  0.6732369671696876  0.8670110685111869  0.2207322242611122  1.0000
  N   N2        1.0  0.8267630323985748  0.3670110687210275  0.2792677757900432  1.0000
  N   N3        1.0  0.3267630328575558  0.13298893106913195  0.7792677757680662  1.0000
  N   N4        1.0  0.17323696762866878  0.6329889308592913  0.7207322242391351  1.0000
  N   N5        1.0  0.49875929679986025  0.722057736694081  0.24293763008860467  1.0000
  N   N6        1.0  0.0012407027773587112  0.22205773690392155  0.25706236992554954  1.0000
  N   N7        1.0  0.5012407032273833  0.27794226288623786  0.7570623699405736  1.0000
  N   N8        1.0  0.9987592972498848  0.7779422626763972  0.7429376301036288  1.0000
  N   N9        1.0  0.7175491809002607  0.8705787058796575  0.26393534776226435  1.0000
  N   N10       1.0  0.7824508186680016  0.37057870608949817  0.23606465228889106  1.0000
  N   N11       1.0  0.2824508191269829  0.1294212937006613  0.7360646522669139  1.0000
  N   N12       1.0  0.21754918135924173  0.6294212934908207  0.7639353477402873  1.0000
  N   N13       1.0  0.529182348718534  0.7936053714556881  0.16592604359643043  1.0000
  N   N14       1.0  0.9708176516988075  0.2936053716655287  0.3340739561090138  1.0000
  N   N15       1.0  0.4708176512849829  0.20639462812463075  0.8340739560861667  1.0000
  N   N16       1.0  0.029182348328436178  0.7063946293035595  0.6659260439201646  1.0000
  N   N17       1.0  0.47642552368002095  0.6516114585246912  0.31950376694421667  1.0000
  N   N18       1.0  0.02357447677000355  0.15161145873453175  0.18049623307080745  1.0000
  N   N19       1.0  0.5235744763472225  0.34838854105562767  0.6804962330849617  1.0000
  N   N20       1.0  0.97642552325724  0.8483885408457871  0.8195037669583709  1.0000
  N   N21       1.0  0.22320143981153506  0.6109823514126133  0.23244715915299222  1.0000
  N   N22       1.0  0.27679855974195716  0.11098235162245386  0.2675528405145808  1.0000
  N   N23       1.0  0.7767985601919816  0.38901764816770557  0.7675528405296049  1.0000
  N   N24       1.0  0.7232014402615595  0.889017647957865  0.7324471591680163  1.0000
  N   N25       1.0  0.03228153664477935  0.7340396706551471  0.23164675642602334  1.0000
  N   N26       1.0  0.46771846380524523  0.23403967086498775  0.2683532435890008  1.0000
  N   N27       1.0  0.967718463382464  0.26596032892517163  0.7683532436031549  1.0000
  N   N28       1.0  0.5322815362219984  0.7659603287153309  0.7316467564401775  1.0000
  N   N29       1.0  0.23760450880181272  0.6225930742692444  0.2786438368588111  1.0000
  N   N30       1.0  0.26239549164821185  0.12259307447908499  0.2213561631562131  1.0000
  N   N31       1.0  0.7623954912254308  0.37740692531107445  0.7213561631703672  1.0000
  N   N32       1.0  0.7376045083790317  0.8774069251012339  0.7786438368729651  1.0000
  N   N33       1.0  0.9521015086212289  0.8002781304470259  0.3013346473347155  1.0000
  N   N34       1.0  0.5478984918198391  0.3002781292680972  0.19866535271730992  1.0000
  N   N35       1.0  0.04789849140601457  0.1997218705220622  0.698665352694463  1.0000
  N   N36       1.0  0.45210150820740447  0.6997218703122217  0.8013346473118684  1.0000
  N   N37       1.0  0.12523413852290188  0.6722591910420255  0.1628851054620192  1.0000
  N   N38       1.0  0.3747658610543171  0.1722591898630968  0.33711489455213495  1.0000
  N   N39       1.0  0.8747658614806149  0.3277408099270626  0.8371148942205779  1.0000
  N   N40       1.0  0.6252341389729263  0.8277408097172221  0.6628851054770434  1.0000
  O   O1        1.0  0.7283222638539932  0.483664321122958  0.3532292862516806  1.0000
  O   O2        1.0  0.7716777365870748  0.9836643223018867  0.14677071380034476  1.0000
  O   O3        1.0  0.2716777361732503  0.5163356784573608  0.6467707137774977  1.0000
  O   O4        1.0  0.22832226344016873  0.01633567866720146  0.8532292862288336  1.0000
  O   O5        1.0  0.1453632618883222  0.04397231935296775  0.34329037890114217  1.0000
  O   O6        1.0  0.3546367376888968  0.5439723205318965  0.15670962111301204  1.0000
  O   O7        1.0  0.8546367381389212  0.9560276802273511  0.6567096211280361  1.0000
  O   O8        1.0  0.6453632623383467  0.45602768043719166  0.8432903789161662  1.0000
  O   O9        1.0  0.5409984192692385  0.34522171779913857  0.39426209394649114  1.0000
  O   O10       1.0  0.9590015802990238  0.8452217189780673  0.10573790610466434  1.0000
  O   O11       1.0  0.45900158075800496  0.6547782817811802  0.6057379060826872  1.0000
  O   O12       1.0  0.04099841972821963  0.1547782819910208  0.8942620939245142  1.0000
  O   O13       1.0  0.40960188663827823  0.8053402502925526  0.518677106169795  1.0000
  O   O14       1.0  0.09039811384794635  0.3053402505023932  0.9813228938374061  1.0000
  O   O15       1.0  0.5903981133889652  0.1946597492877662  0.4813228938593833  1.0000
  O   O16       1.0  0.9096018861792972  0.6946597490779256  0.018677106191772177  1.0000
  Cl  Cl1       1.0  0.8640853000569979  0.4968864650025466  0.4426842440831269  1.0000
  Cl  Cl2       1.0  0.6359147003603433  0.9968864661814754  0.057315755622317326  1.0000
  Cl  Cl3       1.0  0.13591469997024558  0.5031135345777722  0.5573157559460514  1.0000
  Cl  Cl4       1.0  0.3640852996431735  0.003113534787612837  0.9426842440602797  1.0000
  Cl  Cl5       1.0  0.10895721045444641  0.1310156578584149  0.442011916907661  1.0000
  Cl  Cl6       1.0  0.3910427891227725  0.6310156576485744  0.0579880831064932  1.0000
  Cl  Cl7       1.0  0.8910427895727971  0.8689843431106732  0.5579880831215174  1.0000
  Cl  Cl8       1.0  0.608957210904471  0.3689843433205139  0.9420119169226852  1.0000
