data_image0
_chemical_formula_structural       H28C16N28
_chemical_formula_sum              "H28 C16 N28"
_cell_length_a       15.111681920853194
_cell_length_b       4.71818633977176
_cell_length_c       9.950582444122352
_cell_angle_alpha    90.0
_cell_angle_beta     105.8040175345815
_cell_angle_gamma    90.0

_space_group_name_H-M_alt    "P 1"
_space_group_IT_number       1

loop_
  _space_group_symop_operation_xyz
  'x, y, z'

loop_
  _atom_site_type_symbol
  _atom_site_label
  _atom_site_symmetry_multiplicity
  _atom_site_fract_x
  _atom_site_fract_y
  _atom_site_fract_z
  _atom_site_occupancy
  H   H1        1.0  0.9003681409837629  0.18442657566638063  0.6728753354040184  1.0000
  H   H2        1.0  0.0996318587528901  0.18442657566638063  0.8271246640004584  1.0000
  H   H3        1.0  0.09963185911721183  0.8155734243819939  0.3271246647528621  1.0000
  H   H4        1.0  0.9003681411584757  0.8155734243819939  0.17287533511198094  1.0000
  H   H5        1.0  0.8318931336312299  0.9383306870864631  0.5762920880268951  1.0000
  H   H6        1.0  0.1681068661054231  0.9383306870864631  0.9237079113775817  1.0000
  H   H7        1.0  0.1681068656190531  0.061669312961911416  0.4237079110891845  1.0000
  H   H8        1.0  0.8318931339955515  0.061669312961911416  0.07629208877929884  1.0000
  H   H9        1.0  0.988438944117718  0.20414741399268146  0.3943041493644433  1.0000
  H   H10       1.0  0.01156105549688658  0.20414741399268146  0.10569585050404003  1.0000
  H   H11       1.0  0.011561055983256616  0.795852586055693  0.6056958507924373  1.0000
  H   H12       1.0  0.9884389446040881  0.795852586055693  0.8943041496528406  1.0000
  H   H13       1.0  0.7353980142651343  0.4249837788511333  0.47544340557186693  1.0000
  H   H14       1.0  0.2646019860105533  0.4249837788511333  0.024556594292976148  1.0000
  H   H15       1.0  0.2646019858358405  0.5750162211972412  0.5245565945850137  1.0000
  H   H16       1.0  0.7353980139008126  0.5750162211972412  0.9754434048194631  1.0000
  H   H17       1.0  0.5847211287929107  0.9898441442704703  0.3098702468632603  1.0000
  H   H18       1.0  0.4152788714827768  0.9898441442704703  0.19012975300158272  1.0000
  H   H19       1.0  0.415278871308064  0.010155855777904264  0.6901297532936203  1.0000
  H   H20       1.0  0.5847211286181979  0.010155855777904264  0.8098702471552978  1.0000
  H   H21       1.0  0.5089552498433305  0.41857813951780803  0.11369939260594274  1.0000
  H   H22       1.0  0.49104475062196595  0.41857813951780803  0.3863006083033415  1.0000
  H   H23       1.0  0.49104475025764427  0.5814218605305664  0.8863006075509379  1.0000
  H   H24       1.0  0.5089552494790088  0.5814218605305664  0.6136993918535391  1.0000
  H   H25       1.0  0.7273498194550833  0.8202951264080901  0.23629883067133411  1.0000
  H   H26       1.0  0.27265018082060427  0.8202951264080901  0.2637011691935089  1.0000
  H   H27       1.0  0.27265018064589147  0.17970487364028437  0.7637011694855464  1.0000
  H   H28       1.0  0.7273498192803705  0.17970487364028437  0.7362988309633717  1.0000
  C   C1        1.0  0.9230401860066405  0.3108492870739285  0.38654137706011343  1.0000
  C   C2        1.0  0.07695981426904715  0.3108492870739285  0.11345862280472957  1.0000
  C   C3        1.0  0.07695981409433432  0.689150712974446  0.6134586230967671  1.0000
  C   C4        1.0  0.9230401858319277  0.689150712974446  0.8865413773521509  1.0000
  C   C5        1.0  0.7928885821123337  0.42133153225486314  0.42952385492765677  1.0000
  C   C6        1.0  0.20711141816335393  0.42133153225486314  0.07047614493718628  1.0000
  C   C7        1.0  0.20711141798864108  0.5786684677935113  0.5704761452292237  1.0000
  C   C8        1.0  0.7928885817480119  0.5786684677935113  0.929523854175253  1.0000
  C   C9        1.0  0.6047592913003708  0.07548781763825574  0.22140563903655064  1.0000
  C   C10       1.0  0.39524070897531677  0.07548781763825574  0.27859436082829236  1.0000
  C   C11       1.0  0.3952407088006039  0.9245121824101188  0.7785943611203299  1.0000
  C   C12       1.0  0.604759291125658  0.9245121824101188  0.7214056393285883  1.0000
  C   C13       1.0  0.5690791940311826  0.28540614190009733  0.12452744799387416  1.0000
  C   C14       1.0  0.4309208055834221  0.28540614190009733  0.3754725518746092  1.0000
  C   C15       1.0  0.4309208054087093  0.7145938581482771  0.8754725521666468  1.0000
  C   C16       1.0  0.5690791945175526  0.7145938581482771  0.6245274482822714  1.0000
  N   N1        1.0  0.8680539256669356  0.24943167676097552  0.4713803490819898  1.0000
  N   N2        1.0  0.13194607460875193  0.24943167676097552  0.02861965078285324  1.0000
  N   N3        1.0  0.1319460744340391  0.750568323287399  0.5286196510748907  1.0000
  N   N4        1.0  0.8680539254922228  0.750568323287399  0.9713803493740274  1.0000
  N   N5        1.0  0.8900181657528504  0.058659635306686185  0.5841370489866753  1.0000
  N   N6        1.0  0.10998183417341136  0.058659635306686185  0.9158629514622427  1.0000
  N   N7        1.0  0.10998183434812421  0.9413403647416884  0.4158629511702053  1.0000
  N   N8        1.0  0.8900181659275633  0.9413403647416884  0.08413704869463777  1.0000
  N   N9        1.0  0.8015049318202067  0.579093309004869  0.3243475646624555  1.0000
  N   N10       1.0  0.19849506845548084  0.579093309004869  0.17565243520238752  1.0000
  N   N11       1.0  0.19849506828076802  0.4209066910435054  0.6756524354944251  1.0000
  N   N12       1.0  0.8015049316454939  0.4209066910435054  0.824347564954493  1.0000
  N   N13       1.0  0.8839983036771917  0.5109110845580995  0.2970657026205541  1.0000
  N   N14       1.0  0.1160016961270219  0.5109110845580995  0.20293429829237053  1.0000
  N   N15       1.0  0.11600169642378308  0.4890889154902749  0.7029342975363266  1.0000
  N   N16       1.0  0.88399830331287  0.4890889154902749  0.7970657018681503  1.0000
  N   N17       1.0  0.6795703784520347  0.9803154362537845  0.1859701026370387  1.0000
  N   N18       1.0  0.3204296218236529  0.9803154362537845  0.31402989722780433  1.0000
  N   N19       1.0  0.3204296216489401  0.019684563794589938  0.8140298975198419  1.0000
  N   N20       1.0  0.6795703782773218  0.019684563794589938  0.6859701029290761  1.0000
  N   N21       1.0  0.6910761533151862  0.11950425214178285  0.07445054692596158  1.0000
  N   N22       1.0  0.3089238469605012  0.11950425214178285  0.4255494529388815  1.0000
  N   N23       1.0  0.3089238467857884  0.8804957479065916  0.9255494532309191  1.0000
  N   N24       1.0  0.6910761529508647  0.8804957479065916  0.574450546173558  1.0000
  N   N25       1.0  0.6236065785786514  0.3068396128818501  0.03592853010519849  1.0000
  N   N26       1.0  0.37639342169703605  0.3068396128818501  0.46407146975964453  1.0000
  N   N27       1.0  0.3763934213327143  0.6931603871665244  0.9640714690072408  1.0000
  N   N28       1.0  0.6236065784039386  0.6931603871665244  0.535928530397236  1.0000
