data_image0
_chemical_formula_structural       H36C44N4S2
_chemical_formula_sum              "H36 C44 N4 S2"
_cell_length_a       9.489951046334127
_cell_length_b       9.971159396345037
_cell_length_c       11.11256659959843
_cell_angle_alpha    84.86879591026076
_cell_angle_beta     64.56195803519999
_cell_angle_gamma    65.7697870024977

_space_group_name_H-M_alt    "P 1"
_space_group_IT_number       1

loop_
  _space_group_symop_operation_xyz
  'x, y, z'

loop_
  _atom_site_type_symbol
  _atom_site_label
  _atom_site_symmetry_multiplicity
  _atom_site_fract_x
  _atom_site_fract_y
  _atom_site_fract_z
  _atom_site_occupancy
  H   H1        1.0  0.6234161414570923  0.6261421925347894  0.13913948573616863  1.0000
  H   H2        1.0  0.37658385886184664  0.3738578066569514  0.860860514118128  1.0000
  H   H3        1.0  0.8454325221764414  0.5652574886483531  0.02965666164358583  1.0000
  H   H4        1.0  0.1545674781424978  0.43474251054338764  0.9703433382107105  1.0000
  H   H5        1.0  0.7604864742997469  0.29403432495534604  0.13971623166787986  1.0000
  H   H6        1.0  0.23951352555074765  0.7059656753356791  0.8602837681823019  1.0000
  H   H7        1.0  0.6003207579700359  0.17391466905637826  0.10224786651354713  1.0000
  H   H8        1.0  0.3996792423489031  0.8260853301353627  0.8977521333407493  1.0000
  H   H9        1.0  0.1555172384531641  0.4171978543484975  0.4634272612324565  1.0000
  H   H10       1.0  0.8444827629232649  0.5828021448391028  0.5365727386179191  1.0000
  H   H11       1.0  0.6935974005787685  0.7678978676922692  0.3027712927755464  1.0000
  H   H12       1.0  0.30640260079766046  0.2321021314953311  0.6972287070748292  1.0000
  H   H13       1.0  0.16007151253544083  0.6029736599403546  0.581810828397778  1.0000
  H   H14       1.0  0.8399284873150538  0.39702634035067064  0.4181891714524037  1.0000
  H   H15       1.0  0.2934213207477774  0.2371197730611421  0.26256870252304987  1.0000
  H   H16       1.0  0.7065786791027171  0.7628802272298831  0.7374312973271319  1.0000
  H   H17       1.0  0.08689623951544456  0.8627324476626471  0.5962816100308643  1.0000
  H   H18       1.0  0.913103760251382  0.13726755165022683  0.4037183908254958  1.0000
  H   H19       1.0  0.16964526032649266  0.07453926522948578  0.5262320117006507  1.0000
  H   H20       1.0  0.8303547395240019  0.9254607350615394  0.47376798814953114  1.0000
  H   H21       1.0  0.47750163039045457  0.02395497565439433  0.3835006429932321  1.0000
  H   H22       1.0  0.5224983689079274  0.9760450247577641  0.6164993578590132  1.0000
  H   H23       1.0  0.11015922916566381  0.06492344734962027  0.1757341127455671  1.0000
  H   H24       1.0  0.8898407711532753  0.9350765518421206  0.8242658871087293  1.0000
  H   H25       1.0  0.8445406013220785  0.04785610551885935  0.1996720939963358  1.0000
  H   H26       1.0  0.15545939899686065  0.9521438936728815  0.8003279058579608  1.0000
  H   H27       1.0  0.40679438404051305  0.5239127329486702  0.13298989166147657  1.0000
  H   H28       1.0  0.5932056157263135  0.4760872663642038  0.8670101091948836  1.0000
  H   H29       1.0  0.11397894602913307  0.6337101498226153  0.14498764222150196  1.0000
  H   H30       1.0  0.8860210538213616  0.36628985046840984  0.8550123576286798  1.0000
  H   H31       1.0  0.9261860898437669  0.755181013440541  0.056250921344209566  1.0000
  H   H32       1.0  0.0738139100067277  0.24481898685048423  0.943749078505972  1.0000
  H   H33       1.0  0.7296120447230705  0.9289662775330435  0.10661967965059305  1.0000
  H   H34       1.0  0.2703879555958688  0.07103372165869733  0.8933803202037034  1.0000
  H   H35       1.0  0.4021552192696756  0.9355483369535733  0.16864554018970182  1.0000
  H   H36       1.0  0.5978447810492635  0.06445166223816749  0.8313544596645946  1.0000
  C   C1        1.0  0.5130296485314985  0.6693792335730364  0.39946624261534913  1.0000
  C   C2        1.0  0.48697035284493057  0.3306207656145638  0.6005337572350264  1.0000
  C   C3        1.0  0.5494609985149194  0.4256525504992867  0.321953015382  1.0000
  C   C4        1.0  0.45053900133557534  0.5743474497917385  0.6780469844681817  1.0000
  C   C5        1.0  0.3425045002849626  0.6973088243912678  0.48754907090630506  1.0000
  C   C6        1.0  0.657495499565532  0.3026911758997573  0.5124509289438767  1.0000
  C   C7        1.0  0.6406465635791994  0.5070140649236422  0.35071691834845453  1.0000
  C   C8        1.0  0.35935343673973974  0.4929859342680986  0.6492830815058419  1.0000
  C   C9        1.0  0.6279936852953272  0.3214401436248306  0.21146407734246433  1.0000
  C   C10       1.0  0.37200631455516725  0.6785598566661947  0.7885359225077174  1.0000
  C   C11       1.0  0.7955426219006609  0.49818217824121896  0.21771800879596936  1.0000
  C   C12       1.0  0.20445737794983362  0.5018178220498063  0.7822819910542124  1.0000
  C   C13       1.0  0.5370092706765566  0.2529034917160918  0.19037217139388865  1.0000
  C   C14       1.0  0.46299072917393785  0.7470965085749335  0.8096278284562932  1.0000
  C   C15       1.0  0.37909170784170715  0.45749890418105366  0.4138725099326498  1.0000
  C   C16       1.0  0.620908292477232  0.5425010950106872  0.5861274899216466  1.0000
  C   C17       1.0  0.2881830126198746  0.38996217370221614  0.39165072072180573  1.0000
  C   C18       1.0  0.7118169876990644  0.6100378254895247  0.6083492791324907  1.0000
  C   C19       1.0  0.5603299671125421  0.7877778041862703  0.3656128085577727  1.0000
  C   C20       1.0  0.43967003320639686  0.21222219500547052  0.6343871912965238  1.0000
  C   C21       1.0  0.29973190761601715  0.5665505595613335  0.5342219479197734  1.0000
  C   C22       1.0  0.7002680916823648  0.4334494408508249  0.465778052932472  1.0000
  C   C23       1.0  0.36631889863478306  0.28792748566013504  0.2796369472602517  1.0000
  C   C24       1.0  0.6336811012157114  0.7120725146308903  0.7203630525899302  1.0000
  C   C25       1.0  0.21959999872191693  0.8427859401751581  0.5306444097848383  1.0000
  C   C26       1.0  0.7804000011285777  0.15721406011586717  0.4693555900653435  1.0000
  C   C27       1.0  0.2663873095294794  0.9611881821371699  0.49189881144041353  1.0000
  C   C28       1.0  0.7336126903210152  0.03881181815385527  0.5081011884097681  1.0000
  C   C29       1.0  0.4379869756854998  0.9330528728968254  0.4113971339047471  1.0000
  C   C30       1.0  0.5620130241649948  0.06694712739419985  0.5886028659454348  1.0000
  C   C31       1.0  0.0877877914291902  0.8600875150201808  0.15739864576406676  1.0000
  C   C32       1.0  0.9122122084213045  0.1399124852708445  0.8426013540861149  1.0000
  C   C33       1.0  0.1713328320210554  0.9443468229466402  0.16672035398052945  1.0000
  C   C34       1.0  0.8286671682978836  0.05565317624510085  0.8332796458737671  1.0000
  C   C35       1.0  0.9195000047279384  0.9325536786639562  0.1566170509816025  1.0000
  C   C36       1.0  0.08049999512255629  0.06744632162706901  0.8433829488685791  1.0000
  C   C37       1.0  0.3371480597917086  0.6437305277566239  0.14183587830339806  1.0000
  C   C38       1.0  0.6628519400587859  0.35626947253440144  0.8581641215467837  1.0000
  C   C39       1.0  0.17390266945475197  0.7056538832227409  0.14730929937071693  1.0000
  C   C40       1.0  0.8260973308641872  0.294346115969  0.8526907004835795  1.0000
  C   C41       1.0  0.8558249527422976  0.8683241473370447  0.10449643182518369  1.0000
  C   C42       1.0  0.1441750471081968  0.13167585295398057  0.8955035680249981  1.0000
  C   C43       1.0  0.334820565953409  0.8724946007494067  0.16122309391022627  1.0000
  C   C44       1.0  0.6651794338970856  0.12750539954161855  0.8387769059399555  1.0000
  N   N1        1.0  0.752307548902331  0.5664428581887023  0.12331676313268508  1.0000
  N   N2        1.0  0.24769245094816372  0.43355714210232293  0.8766832367174967  1.0000
  N   N3        1.0  0.4183539849413799  0.7245617851362568  0.14749568510451264  1.0000
  N   N4        1.0  0.5816460148254469  0.27543821417661696  0.8525043157518475  1.0000
  S   S1        1.0  0.0011714601446358225  0.40551375465069944  0.19168451966439506  1.0000
  S   S2        1.0  0.9988285401743033  0.5944862445410414  0.8083154801899015  1.0000
