data_image0
_chemical_formula_structural       H84C112N4O8
_chemical_formula_sum              "H84 C112 N4 O8"
_cell_length_a       11.844922340355472
_cell_length_b       8.732668070376508
_cell_length_c       19.10324029389256
_cell_angle_alpha    90.0
_cell_angle_beta     91.57930877715802
_cell_angle_gamma    90.0

_space_group_name_H-M_alt    "P 1"
_space_group_IT_number       1

loop_
  _space_group_symop_operation_xyz
  'x, y, z'

loop_
  _atom_site_type_symbol
  _atom_site_label
  _atom_site_symmetry_multiplicity
  _atom_site_fract_x
  _atom_site_fract_y
  _atom_site_fract_z
  _atom_site_occupancy
  H   H1        1.0  0.556816285080007  0.008797164781815392  0.7000741380906012  1.0000
  H   H2        1.0  0.44318371448619165  0.5087971641876953  0.7999258619531164  1.0000
  H   H3        1.0  0.44318371461981343  0.9912028351750697  0.29992586215580563  1.0000
  H   H4        1.0  0.5568162852120381  0.4912028357691898  0.20007413776979266  1.0000
  H   H5        1.0  0.535836362712625  0.10610169452599517  0.5430986692839662  1.0000
  H   H6        1.0  0.4641636368535736  0.606101693931875  0.9569013307597514  1.0000
  H   H7        1.0  0.4641636369856046  0.8938983054308899  0.4569013304389428  1.0000
  H   H8        1.0  0.5358363628462468  0.3938983060250101  0.0430986694866554  1.0000
  H   H9        1.0  0.4757577718109242  0.3510267349332374  0.48971381952037607  1.0000
  H   H10       1.0  0.5242422280209272  0.8510267343391171  0.010286180405222278  1.0000
  H   H11       1.0  0.5242422278873055  0.6489732650236477  0.5102861802025331  1.0000
  H   H12       1.0  0.4757577716788932  0.14897326561776786  0.9897138198411846  1.0000
  H   H13       1.0  0.3519285890846579  0.5301854934468362  0.5526442712039066  1.0000
  H   H14       1.0  0.6480714104815407  0.030185494040956364  0.9473557288398109  1.0000
  H   H15       1.0  0.6480714106151625  0.46981450651004886  0.4473557290425001  1.0000
  H   H16       1.0  0.3519285892166889  0.9698145070610542  0.052644270883098115  1.0000
  H   H17       1.0  0.2815088541933334  0.463420921004446  0.670409353415165  1.0000
  H   H18       1.0  0.7184911462174283  0.9634209215554512  0.8295906466419992  1.0000
  H   H19       1.0  0.718491145506487  0.5365790789524391  0.32959064683124173  1.0000
  H   H20       1.0  0.28150885432695516  0.03657907840143381  0.17040935361785417  1.0000
  H   H21       1.0  0.2249653300491089  0.3348809786919926  0.7872176568803348  1.0000
  H   H22       1.0  0.7750346703616526  0.8348809780978725  0.7127823431768293  1.0000
  H   H23       1.0  0.7750346704936837  0.6651190224100179  0.21278234285602096  1.0000
  H   H24       1.0  0.2249653301827307  0.16511902185901262  0.28721765708302405  1.0000
  H   H25       1.0  0.20629638850665966  0.1770678030515515  0.8946438272610494  1.0000
  H   H26       1.0  0.793703611904102  0.6770678024574314  0.6053561727961149  1.0000
  H   H27       1.0  0.7937036120361329  0.8229321969053336  0.10535617247530647  1.0000
  H   H28       1.0  0.2062963886402814  0.32293219749945373  0.3946438274637385  1.0000
  H   H29       1.0  0.30630618343068017  0.9274466846477549  0.9061456892362868  1.0000
  H   H30       1.0  0.6936938161355184  0.4274466840967497  0.5938543108074307  1.0000
  H   H31       1.0  0.6936938162691403  0.07255331530913016  0.09385431101011989  1.0000
  H   H32       1.0  0.30630618356430195  0.5725533158601354  0.40614568943897605  1.0000
  H   H33       1.0  0.424921203190686  0.8323036477998906  0.8108138902889945  1.0000
  H   H34       1.0  0.5750787963755126  0.3323036483940108  0.689186109754723  1.0000
  H   H35       1.0  0.5750787965091344  0.16769635215699444  0.18918610995741225  1.0000
  H   H36       1.0  0.424921203322717  0.6676963515628743  0.31081388996818604  1.0000
  H   H37       1.0  0.4645999648227417  0.755289329314406  0.68336416120028  1.0000
  H   H38       1.0  0.535400034743457  0.25528932876340066  0.8166358388434376  1.0000
  H   H39       1.0  0.5354000348770788  0.2447106706424792  0.3166358390461268  1.0000
  H   H40       1.0  0.46459996495477274  0.7447106711934844  0.1833641608794715  1.0000
  H   H41       1.0  0.516960779286326  0.8365029222603957  0.6055818148088118  1.0000
  H   H42       1.0  0.4830392202798726  0.33650292285451583  0.8944181852349058  1.0000
  H   H43       1.0  0.4830392204119036  0.16349707769648938  0.39441818491409736  1.0000
  H   H44       1.0  0.5169607794199478  0.6634970771023693  0.10558181501150093  1.0000
  H   H45       1.0  0.17161292386396368  0.8192073616387393  0.6289428420957378  1.0000
  H   H46       1.0  0.828387075702235  0.31920736223285945  0.8710571579479797  1.0000
  H   H47       1.0  0.8283870758342661  0.1807926383181458  0.3710571576271713  1.0000
  H   H48       1.0  0.17161292399758546  0.680792638869151  0.12894284229842704  1.0000
  H   H49       1.0  0.8971686846951222  0.04602800962554736  0.2725542287903909  1.0000
  H   H50       1.0  0.10283131513672918  0.5460280090314271  0.22744577113520734  1.0000
  H   H51       1.0  0.10283131500469815  0.9539719903313377  0.7274457714560159  1.0000
  H   H52       1.0  0.8971686854060635  0.45397199092545787  0.7725542286011484  1.0000
  H   H53       1.0  0.016763518323120494  0.8677002124590433  0.20604224979862545  1.0000
  H   H54       1.0  0.9832364823548846  0.3677002119080381  0.2939577506639171  1.0000
  H   H55       1.0  0.9832364822212629  0.13229978749784177  0.793957750461228  1.0000
  H   H56       1.0  0.016763518189498713  0.632299788048847  0.7060422495959363  1.0000
  H   H57       1.0  0.20162698895660067  0.7780377984419442  0.2556912580606502  1.0000
  H   H58       1.0  0.7983730108752507  0.2780377990360644  0.24430874186494814  1.0000
  H   H59       1.0  0.798373010741629  0.22196220151494084  0.7443087416622589  1.0000
  H   H60       1.0  0.20162698966913253  0.7219622009208206  0.7556912583949054  1.0000
  H   H61       1.0  0.26627828586798535  0.8608105059552432  0.3746955131701775  1.0000
  H   H62       1.0  0.733721713963866  0.3608105065493634  0.12530448675542072  1.0000
  H   H63       1.0  0.7337217138302443  0.13918949400164182  0.6253044865527315  1.0000
  H   H64       1.0  0.26627828573595436  0.6391894934075217  0.8746955134909858  1.0000
  H   H65       1.0  0.2324723521552182  0.014660920232879073  0.4821431518584537  1.0000
  H   H66       1.0  0.7675276476766332  0.5146609196387589  0.017856848067144628  1.0000
  H   H67       1.0  0.7675276475446022  0.985339079724006  0.517856848387953  1.0000
  H   H68       1.0  0.23247235286615936  0.48533908031812617  0.9821431516692112  1.0000
  H   H69       1.0  0.19703682362592675  0.17746456266408658  0.5856665721798568  1.0000
  H   H70       1.0  0.8029631767848349  0.6774645620699664  0.9143334278773072  1.0000
  H   H71       1.0  0.8029631769184565  0.8225354372927984  0.4143334280799965  1.0000
  H   H72       1.0  0.19703682291498562  0.32253543788691863  0.08566657236909936  1.0000
  H   H73       1.0  0.07398153243611724  0.36326906558618643  0.6462328301837258  1.0000
  H   H74       1.0  0.9260184671300813  0.8632690661371917  0.8537671698599917  1.0000
  H   H75       1.0  0.9260184672621125  0.6367309343706986  0.35376716953918325  1.0000
  H   H76       1.0  0.07398153256973902  0.1367309338196934  0.14623283038641507  1.0000
  H   H77       1.0  0.8948885476748624  0.4509751095841439  0.5890332917417913  1.0000
  H   H78       1.0  0.1051114518913362  0.9509751089900237  0.9109667083019262  1.0000
  H   H79       1.0  0.10511145202336722  0.5490248903727412  0.41096670798111784  1.0000
  H   H80       1.0  0.8948885478084841  0.04902489096686137  0.08903329194448047  1.0000
  H   H81       1.0  0.8354078992799179  0.35512282557950164  0.4713718242847797  1.0000
  H   H82       1.0  0.16459210055193343  0.8551228249853815  0.028628175640818578  1.0000
  H   H83       1.0  0.16459210041831163  0.6448771743773833  0.5286281754381293  1.0000
  H   H84       1.0  0.8354078991478869  0.1448771749715036  0.9713718246055881  1.0000
  C   C1        1.0  0.46691030271415407  0.0040225358065722845  0.6825937561010142  1.0000
  C   C2        1.0  0.5330896976966074  0.5040225363575775  0.8174062439561499  1.0000
  C   C3        1.0  0.5330896978302292  0.9959774641503127  0.31740624415883917  1.0000
  C   C4        1.0  0.46691030200321293  0.49597746359930756  0.1825937562902568  1.0000
  C   C5        1.0  0.44024570461435164  0.14311679430936108  0.6373146644736903  1.0000
  C   C6        1.0  0.5597542957964099  0.6431167937152409  0.8626853355834738  1.0000
  C   C7        1.0  0.5597542950854688  0.856883205647524  0.3626853357727164  1.0000
  C   C8        1.0  0.44024570474638264  0.35688320624164416  0.13731466415288188  1.0000
  C   C9        1.0  0.47926777591387804  0.1807501759232612  0.5714886943305721  1.0000
  C   C10       1.0  0.5207322244968835  0.6807501764742665  0.9285113057265921  1.0000
  C   C11       1.0  0.5207322246289146  0.8192498240336238  0.42851130540578364  1.0000
  C   C12       1.0  0.47926777520293695  0.3192498234826186  0.07148869451981463  1.0000
  C   C13       1.0  0.4458091338330539  0.32035128639435223  0.5412957079492675  1.0000
  C   C14       1.0  0.5541908657331447  0.820351285800232  0.9587042920944499  1.0000
  C   C15       1.0  0.5541908658651757  0.6796487135625329  0.4587042917736415  1.0000
  C   C16       1.0  0.44580913396667565  0.179648714156653  0.041295708151956746  1.0000
  C   C17       1.0  0.3758413987442804  0.42139559414644523  0.576901677697411  1.0000
  C   C18       1.0  0.6241586016664811  0.9213955946974504  0.9230983223597532  1.0000
  C   C19       1.0  0.6241586017985121  0.5786044058104398  0.42309832203894476  1.0000
  C   C20       1.0  0.37584139887790224  0.07860440525943461  0.0769016779001002  1.0000
  C   C21       1.0  0.33623292984333736  0.38425395571634563  0.64300129333599  1.0000
  C   C22       1.0  0.6637670697228613  0.8842539551222255  0.8569987067077276  1.0000
  C   C23       1.0  0.6637670698548922  0.6157460442405395  0.3569987063869191  1.0000
  C   C24       1.0  0.3362329299769592  0.11574604483465963  0.14300129353867913  1.0000
  C   C25       1.0  0.36702036945359207  0.24335024563785768  0.6725177346629405  1.0000
  C   C26       1.0  0.6329796301126065  0.7433502450437375  0.8274822653807771  1.0000
  C   C27       1.0  0.6329796302462284  0.7566497543190274  0.3274822655834663  1.0000
  C   C28       1.0  0.3670203695856232  0.25664975491314757  0.17251773434213197  1.0000
  C   C29       1.0  0.33811854055493556  0.17343621763637007  0.7392316481675172  1.0000
  C   C30       1.0  0.661881459011263  0.6734362170422499  0.7607683518762003  1.0000
  C   C31       1.0  0.6618814591448848  0.826563782320515  0.26076835207888954  1.0000
  C   C32       1.0  0.33811854068696656  0.32656378291463517  0.23923164784670875  1.0000
  C   C33       1.0  0.2689847887355266  0.22578294103362054  0.7922529245417523  1.0000
  C   C34       1.0  0.7310152116752349  0.7257829415846258  0.7077470755154118  1.0000
  C   C35       1.0  0.7310152118088568  0.7742170589232645  0.207747075718101  1.0000
  C   C36       1.0  0.2689847888675576  0.2742170583722593  0.29225292422094395  1.0000
  C   C37       1.0  0.2582903498467157  0.1362115610502891  0.8522978582338779  1.0000
  C   C38       1.0  0.7417096505640457  0.6362115604561689  0.6477021418232862  1.0000
  C   C39       1.0  0.7417096506976676  0.863788438906596  0.14770214202597537  1.0000
  C   C40       1.0  0.2582903499787468  0.36378843950071615  0.35229785791306956  1.0000
  C   C41       1.0  0.3146235823981373  0.9957922343915535  0.8587953291639888  1.0000
  C   C42       1.0  0.6853764171680612  0.4957922338405484  0.6412046708797288  1.0000
  C   C43       1.0  0.6853764173000924  0.0042077655653314835  0.14120467055892028  1.0000
  C   C44       1.0  0.3146235825317591  0.5042077661163367  0.35879532936667796  1.0000
  C   C45       1.0  0.38221039651518707  0.9420493386101313  0.8051455303876682  1.0000
  C   C46       1.0  0.6177896030510115  0.4420493392042513  0.6948544696560492  1.0000
  C   C47       1.0  0.6177896031830425  0.05795066134675391  0.19485446933524084  1.0000
  C   C48       1.0  0.38221039664880896  0.5579506618977591  0.30514553059035743  1.0000
  C   C49       1.0  0.3946461239117793  0.031447255041283144  0.7456899639984441  1.0000
  C   C50       1.0  0.6053538764989823  0.531447254447163  0.7543100360587202  1.0000
  C   C51       1.0  0.605353876632604  0.9685527449156018  0.25431003626140936  1.0000
  C   C52       1.0  0.39464612319924736  0.46855274550972204  0.24568996366418894  1.0000
  C   C53       1.0  0.4521987040291541  0.8481575276089318  0.6451243890630978  1.0000
  C   C54       1.0  0.5478012955370445  0.34815752705792646  0.8548756109806197  1.0000
  C   C55       1.0  0.5478012956690755  0.15184247234795334  0.35487561065981127  1.0000
  C   C56       1.0  0.45219870416277586  0.6518424728989586  0.14512438926578702  1.0000
  C   C57       1.0  0.3375153008382731  0.8338220210957886  0.6091466271957059  1.0000
  C   C58       1.0  0.6624846995724885  0.3338220205447833  0.8908533728614584  1.0000
  C   C59       1.0  0.6624846997045195  0.16617797886109653  0.3908533725406499  1.0000
  C   C60       1.0  0.33751530097189486  0.6661779794121018  0.10914662739839508  1.0000
  C   C61       1.0  0.015286364983371407  0.06183429916817151  0.3612257126459705  1.0000
  C   C62       1.0  0.9847136356930429  0.5618342997191768  0.1387742872930745  1.0000
  C   C63       1.0  0.9847136355594213  0.9381657007887135  0.6387742870903853  1.0000
  C   C64       1.0  0.01528636485134039  0.43816570023770834  0.861225712966779  1.0000
  C   C65       1.0  0.9787374188592975  0.00820674614246618  0.2938828199862364  1.0000
  C   C66       1.0  0.021262580972553857  0.5082067466934714  0.20611717993936188  1.0000
  C   C67       1.0  0.021262580838932073  0.991793253814419  0.7061171797366727  1.0000
  C   C68       1.0  0.9787374187272665  0.49179325326341367  0.7938828203070448  1.0000
  C   C69       1.0  0.045267443196656335  0.9086186370596698  0.2574969802789188  1.0000
  C   C70       1.0  0.954732556635195  0.40861863765379003  0.24250301964667945  1.0000
  C   C71       1.0  0.9547325565015733  0.09138136289721524  0.7425030194439902  1.0000
  C   C72       1.0  0.045267443909188236  0.591381362303095  0.757496980613174  1.0000
  C   C73       1.0  0.1504576005627347  0.8558557384487606  0.28606976413145846  1.0000
  C   C74       1.0  0.8495424001152704  0.3558557390428808  0.21393023633108416  1.0000
  C   C75       1.0  0.8495423999816486  0.14414426150812445  0.7139302361283949  1.0000
  C   C76       1.0  0.15045760042911288  0.6441442609140043  0.7860697639287693  1.0000
  C   C77       1.0  0.18683434566613144  0.9026114672488816  0.3515190546419795  1.0000
  C   C78       1.0  0.813165655010283  0.40261146669787634  0.1484809452970654  1.0000
  C   C79       1.0  0.813165654876661  0.09738853270800346  0.6484809450943763  1.0000
  C   C80       1.0  0.18683434553410042  0.5973885332590086  0.851519054962788  1.0000
  C   C81       1.0  0.12115716255181579  0.006812904088479213  0.3907540422452158  1.0000
  C   C82       1.0  0.8788428372800356  0.5068129046394845  0.10924595768038248  1.0000
  C   C83       1.0  0.8788428371480047  0.9931870958684059  0.609245958001191  1.0000
  C   C84       1.0  0.121157162418194  0.49318709531740057  0.8907540420425265  1.0000
  C   C85       1.0  0.15473193330610646  0.05817090445968343  0.45740713986797926  1.0000
  C   C86       1.0  0.8452680665257449  0.5581709050106888  0.04259286005761906  1.0000
  C   C87       1.0  0.8452680663937139  0.9418290954972016  0.5425928603784275  1.0000
  C   C88       1.0  0.15473193317248465  0.4418290949461964  0.9574071396652899  1.0000
  C   C89       1.0  0.0878177362534155  0.162377171395095  0.4932706018709809  1.0000
  C   C90       1.0  0.9121822635784359  0.6623771708009749  0.0067293980546174045  1.0000
  C   C91       1.0  0.9121822634448141  0.83762282856179  0.5067293978519282  1.0000
  C   C92       1.0  0.0878177361213845  0.33762282915591024  0.9932706021917893  1.0000
  C   C93       1.0  0.11864442190033371  0.21818534663689004  0.5610414462096479  1.0000
  C   C94       1.0  0.881355578508837  0.7181853460427698  0.9389585533240185  1.0000
  C   C95       1.0  0.8813555786424588  0.781814653319995  0.4389585535267078  1.0000
  C   C96       1.0  0.11864442118939256  0.2818146539141152  0.061041446398890455  1.0000
  C   C97       1.0  0.05055382116449395  0.3208630555311136  0.5942155945098515  1.0000
  C   C98       1.0  0.9494461792462676  0.8208630560821188  0.9057844055473125  1.0000
  C   C99       1.0  0.9494461793782986  0.6791369444257714  0.40578440522650416  1.0000
  C   C100      1.0  0.05055382045355279  0.17913694387476628  0.09421559469909412  1.0000
  C   C101      1.0  0.9480826839162486  0.3706926513079331  0.5614432458194637  1.0000
  C   C102      1.0  0.051917315649949905  0.870692650713813  0.9385567542242538  1.0000
  C   C103      1.0  0.05191731578198093  0.6293073486489519  0.4385567539034454  1.0000
  C   C104      1.0  0.9480826840498705  0.12930734924307213  0.06144324602215285  1.0000
  C   C105      1.0  0.914717637452499  0.31880177713888175  0.49618416328276616  1.0000
  C   C106      1.0  0.08528236237935245  0.8188017765447615  0.0038158366428320163  1.0000
  C   C107      1.0  0.08528236224732144  0.6811982228180034  0.5038158369636405  1.0000
  C   C108      1.0  0.9147176373188772  0.1811982234121235  0.9961841630800771  1.0000
  C   C109      1.0  0.9835668864106738  0.21339159521262513  0.4601328824765413  1.0000
  C   C110      1.0  0.016433113421177526  0.7133915957636303  0.03986711744905697  1.0000
  C   C111      1.0  0.016433113289146505  0.78660840474426  0.5398671177698654  1.0000
  C   C112      1.0  0.9835668862770521  0.28660840419325473  0.9601328822738521  1.0000
  N   N1        1.0  0.9500150315583789  0.16170670276479615  0.3960710451294612  1.0000
  N   N2        1.0  0.04998496911962626  0.661706702170676  0.10392895533308141  1.0000
  N   N3        1.0  0.04998496898600447  0.8382932971920889  0.6039289551303922  1.0000
  N   N4        1.0  0.950015031424757  0.3382932977862091  0.8960710449267719  1.0000
  O   O1        1.0  0.32368927664054153  0.8400773441608327  0.5448541384055526  1.0000
  O   O2        1.0  0.6763107237702201  0.3400773436098274  0.9551458616516116  1.0000
  O   O3        1.0  0.6763107239038418  0.15992265579605244  0.4551458618543007  1.0000
  O   O4        1.0  0.3236892759280096  0.6599226563470577  0.044854138071297456  1.0000
  O   O5        1.0  0.2543506202687645  0.8161665922214202  0.6535270302896782  1.0000
  O   O6        1.0  0.745649380141997  0.3161665928155403  0.8464729697674861  1.0000
  O   O7        1.0  0.7456493802756189  0.1838334077354649  0.3464729699701753  1.0000
  O   O8        1.0  0.2543506204007955  0.6838334071413447  0.15352702996886972  1.0000
