data_image0
_chemical_formula_structural       H20C22N8S6
_chemical_formula_sum              "H20 C22 N8 S6"
_cell_length_a       6.886484071138577
_cell_length_b       10.043727745314188
_cell_length_c       10.587872107254912
_cell_angle_alpha    63.79890852477778
_cell_angle_beta     76.09970218929398
_cell_angle_gamma    74.99016436750172

_space_group_name_H-M_alt    "P 1"
_space_group_IT_number       1

loop_
  _space_group_symop_operation_xyz
  'x, y, z'

loop_
  _atom_site_type_symbol
  _atom_site_label
  _atom_site_symmetry_multiplicity
  _atom_site_fract_x
  _atom_site_fract_y
  _atom_site_fract_z
  _atom_site_occupancy
  H   H1        1.0  0.8200756336653843  0.5730167101214476  0.47273930850905044  1.0000
  H   H2        1.0  0.17992436722007635  0.4269832905012062  0.5272606908168589  1.0000
  H   H3        1.0  0.6365241833485228  0.4751890591207507  0.8989552563173153  1.0000
  H   H4        1.0  0.36347581604793405  0.5248109414929006  0.10104474419248538  1.0000
  H   H5        1.0  0.21857697781630425  0.7190382896656221  0.6106482303482288  1.0000
  H   H6        1.0  0.7814230215763264  0.2809617109443741  0.3893517692192335  1.0000
  H   H7        1.0  0.07769534056021976  0.8557925542234428  0.35744975366036874  1.0000
  H   H8        1.0  0.9223046588362369  0.14420744639020863  0.642550246849432  1.0000
  H   H9        1.0  0.5429251730253221  0.9014617377735291  0.7436075417836739  1.0000
  H   H10       1.0  0.4570748281437172  0.09853826172202909  0.2563924579730185  1.0000
  H   H11       1.0  0.7348971971995455  0.9933698501187369  0.29569246743217814  1.0000
  H   H12       1.0  0.2651028024766637  0.006630149364163729  0.7043075325660673  1.0000
  H   H13       1.0  0.8931118298976843  0.7666922384880961  0.7832436674770348  1.0000
  H   H14       1.0  0.10688816978235081  0.2333077609984597  0.21675633346354922  1.0000
  H   H15       1.0  0.13021711057890228  0.10652913636983471  0.009531250640961435  1.0000
  H   H16       1.0  0.8697828888137284  0.8934708642401615  0.9904687489265009  1.0000
  H   H17       1.0  0.2532114317907847  0.8444580058461564  0.025214814199784358  1.0000
  H   H18       1.0  0.7467885678892505  0.15554199364039942  0.9747851867407997  1.0000
  H   H19       1.0  0.6244201943550349  0.7386746983000028  0.014160992642643404  1.0000
  H   H20       1.0  0.3755798050375957  0.2613253023099935  0.985839006924819  1.0000
  C   C1        1.0  0.5180412802523677  0.6534358166487638  0.5230692484374418  1.0000
  C   C2        1.0  0.48195871942384144  0.34656418283413676  0.4769307515608038  1.0000
  C   C3        1.0  0.7572467839381888  0.5054696676028024  0.6918686341415876  1.0000
  C   C4        1.0  0.24275321723467647  0.49453033189641105  0.3081313665574435  1.0000
  C   C5        1.0  0.4086219235181045  0.5979618251608645  0.7724450922715469  1.0000
  C   C6        1.0  0.5913780758745262  0.4020381754491318  0.22755490729591524  1.0000
  C   C7        1.0  0.6038945898781513  0.9604908737799192  0.5145697219384986  1.0000
  C   C8        1.0  0.396105409798058  0.039509125702981415  0.4854302780597469  1.0000
  C   C9        1.0  0.9528001168648759  0.8692231996459717  0.4389924639893276  1.0000
  C   C10       1.0  0.04719988281515931  0.13077679984058407  0.5610075369512564  1.0000
  C   C11       1.0  0.6535661516102953  0.8947807111837607  0.6531255944936865  1.0000
  C   C12       1.0  0.34643384806973987  0.10521928830279509  0.34687440644689765  1.0000
  C   C13       1.0  0.8495680919766041  0.8194594195894283  0.67693662395107  1.0000
  C   C14       1.0  0.15043190741602652  0.18054058102056805  0.32306337561639226  1.0000
  C   C15       1.0  0.7601233954101784  0.9464276454301476  0.40592778365982085  1.0000
  C   C16       1.0  0.23987660576268693  0.053572354069065686  0.5940722170392102  1.0000
  C   C17       1.0  0.36162269441707595  0.9129983648848315  0.013150727517123812  1.0000
  C   C18       1.0  0.6383773049755548  0.08700163572516476  0.9868492720503386  1.0000
  C   C19       1.0  0.2920875456750189  0.05934083483432031  0.006287150982795251  1.0000
  C   C20       1.0  0.7079124552142677  0.9406591657919887  0.9937128492854527  1.0000
  C   C21       1.0  0.5695533635520632  0.853624716551258  0.006900897460554693  1.0000
  C   C22       1.0  0.43044663584056747  0.1463752840587382  0.9930991021069077  1.0000
  N   N1        1.0  0.37235635647781384  0.6595852216558404  0.6352155019138821  1.0000
  N   N2        1.0  0.6276436431983954  0.3404147778270601  0.3647844980843635  1.0000
  N   N3        1.0  0.7086238222665927  0.5784115509508048  0.5574917977018468  1.0000
  N   N4        1.0  0.2913761774096164  0.4215884485320958  0.4425082022963989  1.0000
  N   N5        1.0  0.601268242821515  0.5202280855374675  0.7957921881250243  1.0000
  N   N6        1.0  0.3987317568585201  0.4797719139490884  0.20420781281555989  1.0000
  N   N7        1.0  0.9977156399660299  0.8063388277437373  0.5721137867921292  1.0000
  N   N8        1.0  0.0022843609194306883  0.1936611728789164  0.42788621253378  1.0000
  S   S1        1.0  0.4756322581504992  0.7326947068417372  0.35622092078650186  1.0000
  S   S2        1.0  0.5243677415257101  0.2673052926411633  0.6437790792117436  1.0000
  S   S3        1.0  0.9856024883790063  0.40749934624346745  0.7301225987517684  1.0000
  S   S4        1.0  0.01439751250645454  0.5925006543791864  0.2698774005741407  1.0000
  S   S5        1.0  0.23070043744373717  0.6149841110220238  0.9052336102300521  1.0000
  S   S6        1.0  0.7692995622362979  0.38501588846453194  0.09476639071053207  1.0000
