data_image0
_chemical_formula_structural       H76C64N4O24S8
_chemical_formula_sum              "H76 C64 N4 O24 S8"
_cell_length_a       10.24005883401908
_cell_length_b       16.2059884395658
_cell_length_c       10.268157368244712
_cell_angle_alpha    90.0
_cell_angle_beta     97.68648763508574
_cell_angle_gamma    90.0

_space_group_name_H-M_alt    "P 1"
_space_group_IT_number       1

loop_
  _space_group_symop_operation_xyz
  'x, y, z'

loop_
  _atom_site_type_symbol
  _atom_site_label
  _atom_site_symmetry_multiplicity
  _atom_site_fract_x
  _atom_site_fract_y
  _atom_site_fract_z
  _atom_site_occupancy
  H   H1        1.0  0.7376635395995887  0.5527132203878079  0.7083595986044439  1.0000
  H   H2        1.0  0.7623364594693179  0.052713220374411666  0.7916404015531837  1.0000
  H   H3        1.0  0.2623364594486854  0.44728677963898456  0.2916404011343789  1.0000
  H   H4        1.0  0.23766354057194714  0.9472867796523808  0.2083595992844259  1.0000
  H   H5        1.0  0.9442101366883932  0.6248068822065191  0.6537359511027258  1.0000
  H   H6        1.0  0.5557898633658952  0.12480688219312286  0.8462640491788181  1.0000
  H   H7        1.0  0.055789863352871796  0.37519311782027337  0.34626404973488384  1.0000
  H   H8        1.0  0.4442101366677608  0.8751931178336696  0.153735950683921  1.0000
  H   H9        1.0  0.06705502989254605  0.7299286935883397  0.5428305153218456  1.0000
  H   H10       1.0  0.4329449704450746  0.2299286935749434  0.9571694848858595  1.0000
  H   H11       1.0  0.9329449701411099  0.27007130643845284  0.4571694845408936  1.0000
  H   H12       1.0  0.5670550295961906  0.7700713064518491  0.04283051595175015  1.0000
  H   H13       1.0  0.0880736630506599  0.8720723862480216  0.6271967696960996  1.0000
  H   H14       1.0  0.41192633630157904  0.37207238623462535  0.8728032303876893  1.0000
  H   H15       1.0  0.9119263369906052  0.1279276137787709  0.37280323114151015  1.0000
  H   H16       1.0  0.5880736637320768  0.6279276137921671  0.12719676947504996  1.0000
  H   H17       1.0  0.983063817683364  0.9125350746206148  0.8259154739264849  1.0000
  H   H18       1.0  0.5169361823633152  0.4125350746072186  0.6740845253801886  1.0000
  H   H19       1.0  0.01693618235029184  0.08746492540617765  0.17408452593625426  1.0000
  H   H20       1.0  0.4830638176703407  0.587464925419574  0.32591547448255054  1.0000
  H   H21       1.0  0.8604966308543698  0.8076149059841404  0.9372002570228897  1.0000
  H   H22       1.0  0.6395033691999188  0.30761490597074415  0.5627997432586541  1.0000
  H   H23       1.0  0.13950336917928613  0.19238509404265214  0.06279974283984933  1.0000
  H   H24       1.0  0.36049663084134637  0.6923850940560483  0.4372002575789555  1.0000
  H   H25       1.0  0.4923407418939966  0.5077116043049854  0.8438425593710767  1.0000
  H   H26       1.0  0.007659258443623919  0.007711604291589163  0.6561574408366284  1.0000
  H   H27       1.0  0.5076592581396592  0.49228839572180705  0.15615744049166247  1.0000
  H   H28       1.0  0.9923407415900318  0.9922883957352034  0.3438425590261107  1.0000
  H   H29       1.0  0.30128520752802834  0.48779077434734974  0.9679040216213199  1.0000
  H   H30       1.0  0.19871479280959223  0.987790774360746  0.532095978586385  1.0000
  H   H31       1.0  0.6987147925132368  0.5122092256794427  0.03209597921628966  1.0000
  H   H32       1.0  0.8012852072240635  0.01220922566604652  0.46790402127635405  1.0000
  H   H33       1.0  0.15175449819700787  0.604844286206502  0.996802551557895  1.0000
  H   H34       1.0  0.34824550115523106  0.10484428619310575  0.5031974485258938  1.0000
  H   H35       1.0  0.8482455018366479  0.3951557138202905  0.0031974483048442183  1.0000
  H   H36       1.0  0.6517544988784247  0.8951557132166309  0.4968025513368453  1.0000
  H   H37       1.0  0.19707378930149572  0.743628597844593  0.9103044935281982  1.0000
  H   H38       1.0  0.30292621102851564  0.24362859783119672  0.5896955057046364  1.0000
  H   H39       1.0  0.8029262107321602  0.25637140218219956  0.08969550633454092  1.0000
  H   H40       1.0  0.6970737890051403  0.7563714021955957  0.4103044941581028  1.0000
  H   H41       1.0  0.38588413829925555  0.763581596157892  0.782945130779946  1.0000
  H   H42       1.0  0.11411586203075577  0.2635815961444958  0.7170548684528887  1.0000
  H   H43       1.0  0.6141158617344002  0.2364184038689005  0.2170548690827932  1.0000
  H   H44       1.0  0.8858841380029  0.7364184038822967  0.28294513140985056  1.0000
  H   H45       1.0  0.7331957820708264  0.5543515937643542  0.31245528791211663  1.0000
  H   H46       1.0  0.7668042186518557  0.05435159375095787  0.1875447127044435  1.0000
  H   H47       1.0  0.2668042179704387  0.4456484062624384  0.687544712925493  1.0000
  H   H48       1.0  0.23319578138180025  0.9456484062758346  0.8124552871582955  1.0000
  H   H49       1.0  0.7361297651484028  0.6065937339557539  0.46457035297150123  1.0000
  H   H50       1.0  0.7638702345812883  0.1065937339423576  0.03542964654627201  1.0000
  H   H51       1.0  0.2638702338998714  0.3934062660710386  0.5354296467673216  1.0000
  H   H52       1.0  0.23612976545236752  0.893406266084435  0.9645703533164672  1.0000
  H   H53       1.0  0.6880437635686577  0.4504692606207729  0.46230394313514994  1.0000
  H   H54       1.0  0.8119562361610334  0.9504692606341693  0.03769605638262333  1.0000
  H   H55       1.0  0.31195623646499804  0.5495307394060195  0.5376960567275892  1.0000
  H   H56       1.0  0.1880437638726225  0.04953073939262332  0.9623039434801158  1.0000
  H   H57       1.0  0.8592625837558613  0.4359697729236007  0.4460104846995471  1.0000
  H   H58       1.0  0.6407374169592115  0.9359697729369969  0.053989514942142526  1.0000
  H   H59       1.0  0.1407374162777946  0.5640302271031918  0.5539895151631921  1.0000
  H   H60       1.0  0.3592625830744443  0.06403022708979557  0.9460104849205966  1.0000
  H   H61       1.0  0.8540416337481709  0.3638766300488608  0.647656835383854  1.0000
  H   H62       1.0  0.6459583663061176  0.863876630062257  0.85234316489769  1.0000
  H   H63       1.0  0.1459583662930942  0.6361233699779317  0.3523431654537556  1.0000
  H   H64       1.0  0.35404163372753833  0.13612336996453545  0.14765683496504917  1.0000
  H   H65       1.0  0.8497570710577306  0.4243540371292684  0.7913000153266795  1.0000
  H   H66       1.0  0.6502429289965578  0.9243540371426646  0.7086999849548643  1.0000
  H   H67       1.0  0.15024292897592528  0.5756459628975241  0.2086999845360596  1.0000
  H   H68       1.0  0.349757071037098  0.07564596288412788  0.29130001490787477  1.0000
  H   H69       1.0  0.9412817258486871  0.5041646216439549  0.2588812272285403  1.0000
  H   H70       1.0  0.5587182748739948  0.004164621630558702  0.24111877338801987  1.0000
  H   H71       1.0  0.058718274184968784  0.49583537838283753  0.7411187726341989  1.0000
  H   H72       1.0  0.4412817251672702  0.9958353783962337  0.7588812274495899  1.0000
  H   H73       1.0  0.9239856740177599  0.6085903674916018  0.20484872265980017  1.0000
  H   H74       1.0  0.5760143257195406  0.10859036747820548  0.29515127783284356  1.0000
  H   H75       1.0  0.07601432601589611  0.3914096325351908  0.7951512772029391  1.0000
  H   H76       1.0  0.42398567432172446  0.8914096325485871  0.704848723004766  1.0000
  C   C1        1.0  0.8964300063154159  0.7111616241723535  0.802101436409745  1.0000
  C   C2        1.0  0.6035699937312633  0.21116162415895726  0.6978985628969286  1.0000
  C   C3        1.0  0.10356999371824004  0.288838375854439  0.19789856345299425  1.0000
  C   C4        1.0  0.3964300063023925  0.7888383758678353  0.30210143696581054  1.0000
  C   C5        1.0  0.9536095454071453  0.687623280218665  0.691499158212312  1.0000
  C   C6        1.0  0.546390454647143  0.18762328020526872  0.808500842069232  1.0000
  C   C7        1.0  0.046390454626510536  0.3123767198081275  0.3085008416504271  1.0000
  C   C8        1.0  0.45360954538651277  0.8123767198215238  0.19149915779350718  1.0000
  C   C9        1.0  0.02194069440084461  0.7466151919780204  0.6291404692360908  1.0000
  C   C10       1.0  0.478059305936776  0.24661519196462417  0.8708595309716143  1.0000
  C   C11       1.0  0.9780593056328112  0.2533848080487721  0.3708595306266484  1.0000
  C   C12       1.0  0.5219406940968799  0.7533848080621683  0.12914046889112488  1.0000
  C   C13       1.0  0.032702171183731234  0.8274454427760456  0.6769824232424921  1.0000
  C   C14       1.0  0.4672978291538893  0.32744544276264936  0.823017576965213  1.0000
  C   C15       1.0  0.9672978288499245  0.17255455725074692  0.32301757662024705  1.0000
  C   C16       1.0  0.5327021708797665  0.6725545572641431  0.1769824228975262  1.0000
  C   C17       1.0  0.9743486423583559  0.8499594295878105  0.7869174722405088  1.0000
  C   C18       1.0  0.5256513576959324  0.3499594295744143  0.7130825280410351  1.0000
  C   C19       1.0  0.02565135767529984  0.15004057043898195  0.21308252762223034  1.0000
  C   C20       1.0  0.47434864234533264  0.6500405704523783  0.2869174727965745  1.0000
  C   C21       1.0  0.9053510763569866  0.7915637863026698  0.8505449038829529  1.0000
  C   C22       1.0  0.5946489236896925  0.2915637862892735  0.6494550954237206  1.0000
  C   C23       1.0  0.09464892367666916  0.20843621372412277  0.1494550959797862  1.0000
  C   C24       1.0  0.4053510763439634  0.7084362137375191  0.3505449044390186  1.0000
  C   C25       1.0  0.4471728794671746  0.6362121161846418  0.8045027131095291  1.0000
  C   C26       1.0  0.05282711987745513  0.1362121161712456  0.695497285999389  1.0000
  C   C27       1.0  0.5528271195810995  0.36378788384215066  0.1954972866292936  1.0000
  C   C28       1.0  0.9471728801562006  0.863787883855547  0.3045027138633501  1.0000
  C   C29       1.0  0.42597587360453315  0.558580890869902  0.8571645620710643  1.0000
  C   C30       1.0  0.07402412672547819  0.05858089085650587  0.6428354371617704  1.0000
  C   C31       1.0  0.5740241264291226  0.4414191091568904  0.14283543779167493  1.0000
  C   C32       1.0  0.9259758733081777  0.9414191085532307  0.3571645627009688  1.0000
  C   C33       1.0  0.3198572482475538  0.5480126573654366  0.927226071950215  1.0000
  C   C34       1.0  0.1801427510970759  0.048012657352040355  0.5727739271587031  1.0000
  C   C35       1.0  0.6801427517861021  0.45198734266135593  0.07277392791252413  1.0000
  C   C36       1.0  0.8198572489365799  0.9519873426747522  0.42722607270403595  1.0000
  C   C37       1.0  0.23649155791661103  0.6142773708079184  0.9447812545114385  1.0000
  C   C38       1.0  0.2635084424134003  0.11427737079452213  0.5552187447213961  1.0000
  C   C39       1.0  0.7635084421170448  0.3857226292188741  0.05521874535130077  1.0000
  C   C40       1.0  0.7364915576202554  0.8857226292322704  0.444781255141343  1.0000
  C   C41       1.0  0.26080548510260415  0.6918589539793849  0.8943381641956285  1.0000
  C   C42       1.0  0.23919451523501642  0.1918589539659887  0.6056618360120765  1.0000
  C   C43       1.0  0.7391945149310517  0.30814104604740755  0.1056618356671106  1.0000
  C   C44       1.0  0.7608054847986394  0.8081410460608038  0.39433816385066267  1.0000
  C   C45       1.0  0.36629177607498625  0.7034607449285235  0.8229473840439345  1.0000
  C   C46       1.0  0.13370822426263432  0.20346074491512733  0.6770526161637705  1.0000
  C   C47       1.0  0.6337082239586697  0.2965392550982689  0.17705261581880471  1.0000
  C   C48       1.0  0.8662917757710216  0.7965392551116652  0.3229473836989685  1.0000
  C   C49       1.0  0.7878149916222317  0.5604721503950028  0.4119579017405508  1.0000
  C   C50       1.0  0.7121850081150687  0.060472150381606526  0.08804209875209293  1.0000
  C   C51       1.0  0.2121850084114242  0.4395278496317897  0.5880420981221883  1.0000
  C   C52       1.0  0.28781499192619636  0.939527849645186  0.9119579020855166  1.0000
  C   C53       1.0  0.7871652755987102  0.47790835831347217  0.4810863922898056  1.0000
  C   C54       1.0  0.7128347241309809  0.9779083583268684  0.018913607227967588  1.0000
  C   C55       1.0  0.21283472443494567  0.5220916417133203  0.5189136075729336  1.0000
  C   C56       1.0  0.28716527590267493  0.022091641699924114  0.9810863926347716  1.0000
  C   C57       1.0  0.8847945590477623  0.42283570271284204  0.6948599134497611  1.0000
  C   C58       1.0  0.6152054409989169  0.9228357027262383  0.8051400858569123  1.0000
  C   C59       1.0  0.1152054409858936  0.5771642973139505  0.3051400864129781  1.0000
  C   C60       1.0  0.3847945590347389  0.0771642973005542  0.19485991400582675  1.0000
  C   C61       1.0  0.9671820460334237  0.5684457479624624  0.28653930538187167  1.0000
  C   C62       1.0  0.5328179536962675  0.06844574794906612  0.21346069413590157  1.0000
  C   C63       1.0  0.03281795400023227  0.4315542520643301  0.7134606944808675  1.0000
  C   C64       1.0  0.4671820463373883  0.9315542520777264  0.7865393057268375  1.0000
  N   N1        1.0  0.6989218527665191  0.5951444057835211  0.7718900091884059  1.0000
  N   N2        1.0  0.8010781472877693  0.09514440577012478  0.7281099910931381  1.0000
  N   N3        1.0  0.3010781472671368  0.40485559424327144  0.22810999067433327  1.0000
  N   N4        1.0  0.19892185274588658  0.9048555942566676  0.27189000876960107  1.0000
  O   O1        1.0  0.9011221450879646  0.5684259670030228  0.923105821287776  1.0000
  O   O2        1.0  0.5988778539809421  0.06842596698962661  0.5768941788698517  1.0000
  O   O3        1.0  0.09887785396030961  0.4315740330237697  0.07689417845104696  1.0000
  O   O4        1.0  0.401122145067332  0.9315740330371659  0.42310582086897097  1.0000
  O   O5        1.0  0.7448433214622787  0.6769133299649518  0.9811458914185838  1.0000
  O   O6        1.0  0.7551566785920096  0.1769133299515556  0.5188541088629601  1.0000
  O   O7        1.0  0.2551566785713771  0.32308667006184066  0.0188541084441553  1.0000
  O   O8        1.0  0.24484332144164625  0.823086670075237  0.48114589099977906  1.0000
  O   O9        1.0  0.528644609742239  0.5966366936553893  0.5822251625216622  1.0000
  O   O10       1.0  0.9713553903120492  0.09663669364199297  0.9177748377598819  1.0000
  O   O11       1.0  0.4713553902914168  0.4033633063714033  0.4177748373410769  1.0000
  O   O12       1.0  0.028644609721606505  0.9033633063847994  0.08222516210285738  1.0000
  O   O13       1.0  0.5972101698905476  0.7329548157025743  0.6835225425592952  1.0000
  O   O14       1.0  0.9027898301561316  0.23295481568917797  0.8164774567473781  1.0000
  O   O15       1.0  0.40278983014310826  0.26704518432421825  0.3164774573034439  1.0000
  O   O16       1.0  0.09721016987752427  0.7670451843376145  0.18352254311536093  1.0000
  O   O17       1.0  0.9178616870959585  0.5909754888271783  0.40574843136621824  1.0000
  O   O18       1.0  0.5821383126413417  0.09097548881378206  0.0942515691264254  1.0000
  O   O19       1.0  0.0821383129376972  0.4090245111996142  0.5942515684965208  1.0000
  O   O20       1.0  0.41786168739992335  0.9090245112130104  0.9057484317111842  1.0000
  O   O21       1.0  0.8220986559356486  0.4908653421335609  0.620598096506708  1.0000
  O   O22       1.0  0.6779013441186399  0.9908653421469571  0.8794019037748358  1.0000
  O   O23       1.0  0.17790134409800734  0.5091346578932315  0.3794019033560311  1.0000
  O   O24       1.0  0.32209865592262515  0.009134657879835329  0.12059809706277373  1.0000
  S   S1        1.0  0.813150980396463  0.6364144290526429  0.8848830785832824  1.0000
  S   S2        1.0  0.6868490196502162  0.1364144290392466  0.6151169207233911  1.0000
  S   S3        1.0  0.18684901963719278  0.3635855709741496  0.11511692127945679  1.0000
  S   S4        1.0  0.31315098038343975  0.8635855709875458  0.38488307913934805  1.0000
  S   S5        1.0  0.5679564183964045  0.6466233984479359  0.6977250696752912  1.0000
  S   S6        1.0  0.9320435816502747  0.14662339843453967  0.8022749296313822  1.0000
  S   S7        1.0  0.43204358163725126  0.3533766015788566  0.3022749301874479  1.0000
  S   S8        1.0  0.06795641838338123  0.8533766015922528  0.19772507023135694  1.0000
