data_image0
_chemical_formula_structural       H8C16N4F8I2
_chemical_formula_sum              "H8 C16 N4 F8 I2"
_cell_length_a       5.138654934089773
_cell_length_b       5.67692402528968
_cell_length_c       17.291460266904934
_cell_angle_alpha    99.0176622773261
_cell_angle_beta     92.81073426768062
_cell_angle_gamma    98.12952578179569

_space_group_name_H-M_alt    "P 1"
_space_group_IT_number       1

loop_
  _space_group_symop_operation_xyz
  'x, y, z'

loop_
  _atom_site_type_symbol
  _atom_site_label
  _atom_site_symmetry_multiplicity
  _atom_site_fract_x
  _atom_site_fract_y
  _atom_site_fract_z
  _atom_site_occupancy
  H   H1        1.0  0.3647228290900509  0.13313667794779743  0.274916929542042  1.0000
  H   H2        1.0  0.6352771694246344  0.8668633218975433  0.7250830707050169  1.0000
  H   H3        1.0  0.6791431222704817  0.8691400236537692  0.21633524060972467  1.0000
  H   H4        1.0  0.320856878045215  0.13085997590333664  0.7836647590493342  1.0000
  H   H5        1.0  0.32095143068726995  0.7264038248821277  0.46667270724215615  1.0000
  H   H6        1.0  0.6790485676825461  0.2735961746750037  0.533327292417797  1.0000
  H   H7        1.0  0.658940744188739  0.49112268293041234  0.4028962628495678  1.0000
  H   H8        1.0  0.3410592562718269  0.5088773169149028  0.5971037373965968  1.0000
  C   C1        1.0  0.1494213511827878  0.22272949838036957  0.1008013375008712  1.0000
  C   C2        1.0  0.8505786492777783  0.7772705014649455  0.8991986627452934  1.0000
  C   C3        1.0  0.9425448264244214  0.06874683058999564  0.0368146854436084  1.0000
  C   C4        1.0  0.057455172090263934  0.9312531692553452  0.9631853148034506  1.0000
  C   C5        1.0  0.322200737134031  0.9494107771157434  0.37570330091310167  1.0000
  C   C6        1.0  0.6777992631816658  0.05058922244136271  0.6242966987459573  1.0000
  C   C7        1.0  0.4239087258228579  0.991904069518362  0.30463532741180654  1.0000
  C   C8        1.0  0.5760912744928388  0.00809593003874381  0.6953646722472523  1.0000
  C   C9        1.0  0.6000137313973302  0.8455752390910968  0.2725046893194021  1.0000
  C   C10       1.0  0.39998626906323576  0.15442476075421827  0.7274953109267626  1.0000
  C   C11       1.0  0.13909596834634133  0.09538568789854521  0.4096695047903648  1.0000
  C   C12       1.0  0.8609040319693553  0.9046143116585605  0.590330494868694  1.0000
  C   C13       1.0  0.40204372170251373  0.7646656181823731  0.41219943546429255  1.0000
  C   C14       1.0  0.5979562787580522  0.23533438166294193  0.5878005647818721  1.0000
  C   C15       1.0  0.5847265582016237  0.6326714772591788  0.37606575527925384  1.0000
  C   C16       1.0  0.4152734405914333  0.36732852436728497  0.6239342449712555  1.0000
  N   N1        1.0  0.6810829393799319  0.6713117197809466  0.30753933522443766  1.0000
  N   N2        1.0  0.31891705898988415  0.32868827977618487  0.6924606644355155  1.0000
  N   N3        1.0  0.9904184404057566  0.21812262338536934  0.4360197326354257  1.0000
  N   N4        1.0  0.009581558108928646  0.7818773764599714  0.5639802676116331  1.0000
  F   F1        1.0  0.7941408484395059  0.9011039420847847  0.07197797120545903  1.0000
  F   F2        1.0  0.2058591518761908  0.098896057472321  0.9280220284535998  1.0000
  F   F3        1.0  0.3060641459654577  0.38991393236701805  0.06856156414921129  1.0000
  F   F4        1.0  0.69393585477348  0.6100860692594201  0.9314384361004036  1.0000
  F   F5        1.0  0.7832574586628115  0.21865748964739273  0.01159969977299028  1.0000
  F   F6        1.0  0.21674254179775435  0.7813425101979223  0.9884003004731743  1.0000
  F   F7        1.0  0.3066584422127168  0.07358386783169373  0.12845091423526384  1.0000
  F   F8        1.0  0.693341558247849  0.9264161320136213  0.8715490860109008  1.0000
  I   I1        1.0  0.9571802731816863  0.4056929694195139  0.19877452033567022  1.0000
  I   I2        1.0  0.04281972727887949  0.5943070304258012  0.8012254799104943  1.0000
