data_image0
_chemical_formula_structural       H16C48N8F16I8
_chemical_formula_sum              "H16 C48 N8 F16 I8"
_cell_length_a       4.171788667984276
_cell_length_b       27.491416269367623
_cell_length_c       11.99449815052395
_cell_angle_alpha    90.0
_cell_angle_beta     95.342957866199
_cell_angle_gamma    90.0

_space_group_name_H-M_alt    "P 1"
_space_group_IT_number       1

loop_
  _space_group_symop_operation_xyz
  'x, y, z'

loop_
  _atom_site_type_symbol
  _atom_site_label
  _atom_site_symmetry_multiplicity
  _atom_site_fract_x
  _atom_site_fract_y
  _atom_site_fract_z
  _atom_site_occupancy
  H   H1        1.0  0.9183228500867978  0.6097390118339504  0.7086732602165617  1.0000
  H   H2        1.0  0.08167715221727326  0.10973901200432395  0.7913267401560887  1.0000
  H   H3        1.0  0.08167715085095617  0.3902609881890524  0.2913267402341387  1.0000
  H   H4        1.0  0.9183228487204806  0.8902609880186789  0.20867326029461158  1.0000
  H   H5        1.0  0.7276362441418311  0.5631719078529721  0.868691380000518  1.0000
  H   H6        1.0  0.272363755568205  0.06317190765959577  0.6313086195244396  1.0000
  H   H7        1.0  0.2723637566015416  0.43682809217003066  0.1313086196128932  1.0000
  H   H8        1.0  0.7276362451751678  0.936828092363407  0.36869138008897157  1.0000
  H   H9        1.0  0.09209832396358243  0.4327537440570596  0.7204035427031177  1.0000
  H   H10       1.0  0.907901675940835  0.9327537438866861  0.7795964576591291  1.0000
  H   H11       1.0  0.9079016769741716  0.5672462559659431  0.2795964577475827  1.0000
  H   H12       1.0  0.09209832499691899  0.06724625613631673  0.22040354279157132  1.0000
  H   H13       1.0  0.2707132845003671  0.48477380282694915  0.5685725069857734  1.0000
  H   H14       1.0  0.7292867152096693  0.9847738026565757  0.9314274925391843  1.0000
  H   H15       1.0  0.7292867162430057  0.5152261971960537  0.4314274926276379  1.0000
  H   H16       1.0  0.27071328313405  0.015226197366427231  0.06857250706382324  1.0000
  C   C1        1.0  0.49943132043339883  0.7735191931051851  0.38148731510579664  1.0000
  C   C2        1.0  0.5005686789436569  0.2735191932755586  0.11851268458566452  1.0000
  C   C3        1.0  0.5005686781047015  0.2264808069178177  0.6185126853345001  1.0000
  C   C4        1.0  0.49943132179971594  0.7264808067474441  0.8814873150277467  1.0000
  C   C5        1.0  0.7181962472612464  0.7204016670493479  0.24557177479352513  1.0000
  C   C6        1.0  0.2818037521158094  0.2204016668559716  0.254428224897936  1.0000
  C   C7        1.0  0.281803751276854  0.27959833297365483  0.7544282256467715  1.0000
  C   C8        1.0  0.7181962486275636  0.7795983331670312  0.7455717747154753  1.0000
  C   C9        1.0  0.6563082409784945  0.7668632722822231  0.28471848949659856  1.0000
  C   C10       1.0  0.3436917583985613  0.26686327208884675  0.2152815101948626  1.0000
  C   C11       1.0  0.3436917573652248  0.23313672774077968  0.7152815101064091  1.0000
  C   C12       1.0  0.6563082425391926  0.7331367279341561  0.7847184902558377  1.0000
  C   C13       1.0  0.40943586189041925  0.7318455492748902  0.43774397025546896  1.0000
  C   C14       1.0  0.5905641398862901  0.23184554944526378  0.062256029446395876  1.0000
  C   C15       1.0  0.5905641388529536  0.26815445038436264  0.5622560293579423  1.0000
  C   C16       1.0  0.4094358608570827  0.768154450577739  0.9377439701670154  1.0000
  C   C17       1.0  0.46329742591561796  0.6846766112582302  0.4005392204814475  1.0000
  C   C18       1.0  0.5367025736558189  0.18467661106485386  0.09946078004730279  1.0000
  C   C19       1.0  0.536702575022136  0.31532338876477256  0.599460779969253  1.0000
  C   C20       1.0  0.46329742488228143  0.8153233889581489  0.9005392203929939  1.0000
  C   C21       1.0  0.6160911372582586  0.6800228004561087  0.30267296610317357  1.0000
  C   C22       1.0  0.38390886211879716  0.18002280026273243  0.19732703358828763  1.0000
  C   C23       1.0  0.38390886108546063  0.319977199566894  0.6973270334998339  1.0000
  C   C24       1.0  0.6160911386245757  0.8199771997602704  0.8026729660251237  1.0000
  C   C25       1.0  0.953938451943721  0.5704935626570674  0.714607520731516  1.0000
  C   C26       1.0  0.046061547960696544  0.0704935624636911  0.7853924796307309  1.0000
  C   C27       1.0  0.04606154879965192  0.4295064373659353  0.28539247888189534  1.0000
  C   C28       1.0  0.9539384505774038  0.9295064375593117  0.21460752080956577  1.0000
  C   C29       1.0  0.8466040219324489  0.5446150166764181  0.803737543553265  1.0000
  C   C30       1.0  0.15339597777758746  0.0446150164830418  0.6962624559716928  1.0000
  C   C31       1.0  0.15339597881092398  0.4553849833465846  0.19626245606014636  1.0000
  C   C32       1.0  0.8466040229657855  0.9553849835399609  0.3037375436417185  1.0000
  C   C33       1.0  0.05103753012152882  0.47178064683600035  0.7212629533153799  1.0000
  C   C34       1.0  0.9489624697828887  0.9717806466656268  0.7787370470468671  1.0000
  C   C35       1.0  0.9489624708162251  0.5282193531870024  0.27873704713532055  1.0000
  C   C36       1.0  0.051037528755211684  0.02821935335737599  0.22126295339342975  1.0000
  C   C37       1.0  0.8954773114970116  0.4941490793668918  0.8065134619852117  1.0000
  C   C38       1.0  0.10452268840740579  0.9941490791965183  0.693486538377035  1.0000
  C   C39       1.0  0.10452268944074238  0.505850920656111  0.19348653846548872  1.0000
  C   C40       1.0  0.8954773125303482  0.005850920826484579  0.30651346207366525  1.0000
  C   C41       1.0  0.7855183108869809  0.46562445981596023  0.894695000782413  1.0000
  C   C42       1.0  0.21448168901743664  0.9656244600093365  0.6053049995798339  1.0000
  C   C43       1.0  0.21448168985639202  0.5343755402070425  0.10530499883099832  1.0000
  C   C44       1.0  0.7855183095206637  0.034375540013666175  0.3946950008604628  1.0000
  C   C45       1.0  0.15041007985345084  0.5011529444320229  0.6364739354008683  1.0000
  C   C46       1.0  0.8495899200509667  0.0011529442386464981  0.8635260649613786  1.0000
  C   C47       1.0  0.8495899186846495  0.49884705559097997  0.3635260650394284  1.0000
  C   C48       1.0  0.1504100808867874  0.9988470554206064  0.13647393548932182  1.0000
  N   N1        1.0  0.1032773696514215  0.5494519591859304  0.6325090376120763  1.0000
  N   N2        1.0  0.8967226302529958  0.04945195935630393  0.8674909627501705  1.0000
  N   N3        1.0  0.8967226286922977  0.4505480408370724  0.3674909619909312  1.0000
  N   N4        1.0  0.10327737068475805  0.9505480406666988  0.13250903770052994  1.0000
  N   N5        1.0  0.6929312809047282  0.44237186294221237  0.9664512407645532  1.0000
  N   N6        1.0  0.307068718805308  0.9423718627718388  0.5335487587604044  1.0000
  N   N7        1.0  0.30706871743899083  0.5576281370807904  0.033548758838454235  1.0000
  N   N8        1.0  0.6929312819380647  0.05762813725116399  0.466451240853007  1.0000
  F   F1        1.0  0.25928331996817267  0.7374251344987667  0.5321016841209176  1.0000
  F   F2        1.0  0.7407166799362448  0.23742513430539033  0.9678983162413293  1.0000
  F   F3        1.0  0.7407166785699276  0.2625748655242361  0.4678983163193791  1.0000
  F   F4        1.0  0.2592833210015092  0.7625748657176125  0.03210168420937119  1.0000
  F   F5        1.0  0.7518707016275884  0.8053462780187746  0.22607472277984056  1.0000
  F   F6        1.0  0.24812929794384836  0.3053462778253983  0.2739252777489097  1.0000
  F   F7        1.0  0.24812929691051183  0.19465372200422815  0.7739252776604562  1.0000
  F   F8        1.0  0.7518707029939056  0.6946537218338547  0.7260747227017907  1.0000
  F   F9        1.0  0.6693179721207521  0.6355486737679779  0.2591880180761657  1.0000
  F   F10       1.0  0.3306820272563037  0.13554867357460149  0.2408119816152954  1.0000
  F   F11       1.0  0.33068202862262075  0.36445132625502497  0.7408119815372456  1.0000
  F   F12       1.0  0.6693179710874156  0.8644513264484013  0.7591880179877122  1.0000
  F   F13       1.0  0.8762097997066661  0.7144339199390325  0.15367742694730074  1.0000
  F   F14       1.0  0.12379019967038961  0.21443392010940598  0.34632257274416045  1.0000
  F   F15       1.0  0.12379019863705307  0.2855660800839704  0.8463225726557069  1.0000
  F   F16       1.0  0.8762098012673645  0.7855660799135968  0.65367742770654  1.0000
  I   I1        1.0  0.31979504920676743  0.6236079390024949  0.49036310600811783  1.0000
  I   I2        1.0  0.6802049503646695  0.12360793880911858  0.009636894520632464  1.0000
  I   I3        1.0  0.6802049517309865  0.3763920610205078  0.5096368944425826  1.0000
  I   I4        1.0  0.3197950481734309  0.8763920612138842  0.9903631059196644  1.0000
  I   I5        1.0  0.40280719641750434  0.8432694482834393  0.439958344882069  1.0000
  I   I6        1.0  0.5971928053592052  0.34326944809006293  0.060041654819795884  1.0000
  I   I7        1.0  0.5971928043258685  0.15673055173956352  0.5600416547313423  1.0000
  I   I8        1.0  0.40280719557854894  0.6567305519329398  0.9399583456309044  1.0000
