data_image0
_chemical_formula_structural       H8C18N6O2
_chemical_formula_sum              "H8 C18 N6 O2"
_cell_length_a       6.5922907861066555
_cell_length_b       7.538704418063765
_cell_length_c       7.761559431305816
_cell_angle_alpha    88.59927433913623
_cell_angle_beta     80.93672017687327
_cell_angle_gamma    86.71705924696819

_space_group_name_H-M_alt    "P 1"
_space_group_IT_number       1

loop_
  _space_group_symop_operation_xyz
  'x, y, z'

loop_
  _atom_site_type_symbol
  _atom_site_label
  _atom_site_symmetry_multiplicity
  _atom_site_fract_x
  _atom_site_fract_y
  _atom_site_fract_z
  _atom_site_occupancy
  H   H1        1.0  0.4572110726839428  0.9029401420041251  0.15770636903338864  1.0000
  H   H2        1.0  0.5427889262737208  0.09705985909451033  0.8422936312955022  1.0000
  H   H3        1.0  0.36247009555319726  0.3437315360660331  0.25204108856881763  1.0000
  H   H4        1.0  0.6375299050191241  0.6562684636995654  0.7479589115876837  1.0000
  H   H5        1.0  0.5526958997478937  0.6110242420586754  0.29291415816904054  1.0000
  H   H6        1.0  0.4473041008244277  0.3889757577069232  0.7070858419874607  1.0000
  H   H7        1.0  0.8256812159837748  0.07474335231878247  0.019342337399678125  1.0000
  H   H8        1.0  0.17431878305223542  0.9252566474510302  0.9806576629522116  1.0000
  C   C1        1.0  0.42861107183165487  0.6204769710458738  0.21526219236982813  1.0000
  C   C2        1.0  0.5713889286623197  0.37952303004854754  0.7847378077636742  1.0000
  C   C3        1.0  0.32401390724210205  0.4716276922760797  0.19443572704848977  1.0000
  C   C4        1.0  0.675986093342334  0.5283723074874942  0.8055642718180785  1.0000
  C   C5        1.0  0.16170364046711688  0.48425927885608094  0.09561412917645772  1.0000
  C   C6        1.0  0.8382963601052044  0.5157407209095176  0.9043858709800436  1.0000
  C   C7        1.0  0.8900483504137554  0.35107485398601446  0.9844019802311093  1.0000
  C   C8        1.0  0.10995165015856581  0.6489251457795843  0.015598019925392214  1.0000
  C   C9        1.0  0.78058923871624  0.20050319085477228  0.9616104960746925  1.0000
  C   C10       1.0  0.21941076177773455  0.7994968102396491  0.038389504058809774  1.0000
  C   C11       1.0  0.3754863836255221  0.7852749100086769  0.1377601295855435  1.0000
  C   C12       1.0  0.6245136169467993  0.2147250897569217  0.8622398705709579  1.0000
  C   C13       1.0  0.9609899679472811  0.08649839153233355  0.4922128691819622  1.0000
  C   C14       1.0  0.039010032637155  0.9135016082312403  0.5077871296846062  1.0000
  C   C15       1.0  0.06177654338490396  0.23052932513093152  0.5491121295144854  1.0000
  C   C16       1.0  0.9382234571874173  0.7694706746346671  0.4508878706420159  1.0000
  C   C17       1.0  0.7729921758514995  0.12436453984559279  0.42747101270757015  1.0000
  C   C18       1.0  0.22700782472082173  0.8756354599200058  0.5725289874489312  1.0000
  N   N1        1.0  0.05118955552765394  0.33667522242067466  0.07970571804936442  1.0000
  N   N2        1.0  0.9488104435083563  0.663324777349138  0.9202942823025253  1.0000
  N   N3        1.0  0.6155424275403125  0.153032148483215  0.3784556556903973  1.0000
  N   N4        1.0  0.3844575729536619  0.8469678526112063  0.621544344443105  1.0000
  N   N5        1.0  0.14371205063976009  0.347796367577513  0.5990827007614657  1.0000
  N   N6        1.0  0.8562879483300181  0.6522036335190976  0.4009172982774922  1.0000
  O   O1        1.0  0.09859740715682505  0.1873210184065725  0.15235803577507717  1.0000
  O   O2        1.0  0.9014025934154962  0.8126789813590262  0.8476419643814241  1.0000
