data_image0
_chemical_formula_structural       H28C30N4O4F4S2
_chemical_formula_sum              "H28 C30 N4 O4 F4 S2"
_cell_length_a       3.7851114094864617
_cell_length_b       13.41113886884844
_cell_length_c       15.511316193161795
_cell_angle_alpha    65.31162114092255
_cell_angle_beta     83.28043484139282
_cell_angle_gamma    84.96723190142788

_space_group_name_H-M_alt    "P 1"
_space_group_IT_number       1

loop_
  _space_group_symop_operation_xyz
  'x, y, z'

loop_
  _atom_site_type_symbol
  _atom_site_label
  _atom_site_symmetry_multiplicity
  _atom_site_fract_x
  _atom_site_fract_y
  _atom_site_fract_z
  _atom_site_occupancy
  H   H1        1.0  0.3588477019814065  0.8991629635318326  0.2667988136484253  1.0000
  H   H2        1.0  0.6411522983721818  0.10083703637420686  0.7332011867968932  1.0000
  H   H3        1.0  0.7657822115443806  0.6470225844024553  0.5189130903424793  1.0000
  H   H4        1.0  0.23421778902357743  0.3529774158398192  0.48108690939050575  1.0000
  H   H5        1.0  0.7925926758643673  0.5182445135995408  0.43649971860433723  1.0000
  H   H6        1.0  0.20740732495754005  0.4817554858933326  0.5635002811305323  1.0000
  H   H7        1.0  0.15515564485845137  0.7101343191800735  0.17426156963366907  1.0000
  H   H8        1.0  0.8448443557095066  0.28986568106220095  0.825738430099316  1.0000
  H   H9        1.0  0.589302032501408  0.7434883981121234  0.1270872821441716  1.0000
  H   H10       1.0  0.4106979678521801  0.25651160179391613  0.8729127183011469  1.0000
  H   H11       1.0  0.16442630589638857  0.8969926412999298  0.04355224614643384  1.0000
  H   H12       1.0  0.8355736944571998  0.10300735860610957  0.9564477542988846  1.0000
  H   H13       1.0  0.45331208011551544  0.9415220262686844  0.10125244473188172  1.0000
  H   H14       1.0  0.5466879204524425  0.05847797397359  0.8987475550011034  1.0000
  H   H15       1.0  0.011277796287042546  0.9092638206146242  0.15170600759008343  1.0000
  H   H16       1.0  0.9887222040665457  0.09073617929141509  0.8482939928552352  1.0000
  H   H17       1.0  0.3926846923648481  0.894619784022631  0.5560299425129213  1.0000
  H   H18       1.0  0.6073153082031097  0.10538021621964365  0.4439700572200639  1.0000
  H   H19       1.0  0.3060965437184952  0.7620138385782695  0.5662474227789257  1.0000
  H   H20       1.0  0.6939034568494629  0.2379861616640049  0.4337525769540594  1.0000
  H   H21       1.0  0.16531561193473804  0.21228836582923066  0.3215045800189983  1.0000
  H   H22       1.0  0.8346843859913675  0.7877116344039377  0.6784954197201201  1.0000
  H   H23       1.0  0.3123661111356683  0.10568139358334766  0.22284402431589923  1.0000
  H   H24       1.0  0.6876338867904371  0.8943186066498205  0.7771559754232191  1.0000
  H   H25       1.0  0.6685491908400523  0.47065893655229396  0.08806827394961894  1.0000
  H   H26       1.0  0.3314508068716838  0.5293410633446388  0.9119317265018329  1.0000
  H   H27       1.0  0.6385199439349148  0.5576849152163653  0.26782866908313857  1.0000
  H   H28       1.0  0.36148005399119093  0.44231508501680267  0.7321713306559798  1.0000
  C   C1        1.0  0.4688403654099445  0.7384609981774447  0.26591070797732563  1.0000
  C   C2        1.0  0.5311596351975932  0.26153900097919347  0.7340892924698774  1.0000
  C   C3        1.0  0.4533797996011021  0.8148055652474679  0.3056290151593179  1.0000
  C   C4        1.0  0.5466202009668558  0.18519443499480664  0.6943709845736672  1.0000
  C   C5        1.0  0.5590310172710622  0.7834580877462725  0.3971371507020251  1.0000
  C   C6        1.0  0.44096898329689566  0.21654191249600205  0.6028628490309601  1.0000
  C   C7        1.0  0.6790525320681291  0.6746035976975642  0.4476725224136838  1.0000
  C   C8        1.0  0.320947468285459  0.32539640220847527  0.5523274780316346  1.0000
  C   C9        1.0  0.6939760406148001  0.6034628273157941  0.4026469400298234  1.0000
  C   C10       1.0  0.30602395973878793  0.3965371725902453  0.5973530604154953  1.0000
  C   C11       1.0  0.3629311453424736  0.7659614465584067  0.16781795524981705  1.0000
  C   C12       1.0  0.6370688550111145  0.2340385533476325  0.8321820451955017  1.0000
  C   C13       1.0  0.24110068151569564  0.8851165063011694  0.11326965598498573  1.0000
  C   C14       1.0  0.7588993190522622  0.11488349394110518  0.8867303437479994  1.0000
  C   C15       1.0  0.5496015613397414  0.867221962787145  0.43715453285596056  1.0000
  C   C16       1.0  0.45039843948216607  0.13277803670572844  0.562845466878909  1.0000
  C   C17       1.0  0.9067054449524761  0.3482107309885894  0.21163111898435244  1.0000
  C   C18       1.0  0.0932945527592598  0.6517892689083435  0.7883688814670994  1.0000
  C   C19       1.0  0.08562303463411085  0.24531805225219677  0.24927909798690737  1.0000
  C   C20       1.0  0.9143769657194774  0.7546819476538426  0.7507209024584113  1.0000
  C   C21       1.0  0.16915561136989854  0.18515035762285176  0.1944730787192524  1.0000
  C   C22       1.0  0.8308443891980594  0.8148496426194228  0.8055269210137327  1.0000
  C   C23       1.0  0.06890962470161938  0.22797286701774713  0.1023496169630102  1.0000
  C   C24       1.0  0.9310903734784356  0.7720271324660198  0.8976503827779927  1.0000
  C   C25       1.0  0.8895187360493295  0.3304132432772525  0.06422480878620292  1.0000
  C   C26       1.0  0.11048126187677629  0.6695867569559155  0.9357751909529155  1.0000
  C   C27       1.0  0.8100136741718539  0.3912385902120527  0.1178197709224875  1.0000
  C   C28       1.0  0.18998632639610405  0.6087614100302218  0.8821802288104976  1.0000
  C   C29       1.0  0.8190141845342555  0.41214750592778815  0.2708051572637484  1.0000
  C   C30       1.0  0.1809858160337024  0.5878524943144865  0.7291948424692367  1.0000
  N   N1        1.0  0.5904010898703146  0.6340586940807048  0.3151661560326659  1.0000
  N   N2        1.0  0.4095989078414213  0.3659413058162281  0.684833844418786  1.0000
  N   N3        1.0  0.4175133116540751  0.8372422175335678  0.5270398392133905  1.0000
  N   N4        1.0  0.5824866889138827  0.162757782708707  0.47296016051959466  1.0000
  O   O1        1.0  0.869330977714888  0.373106135336354  0.357133489905251  1.0000
  O   O2        1.0  0.13066902285306986  0.6268938649059207  0.6428665098277341  1.0000
  O   O3        1.0  0.6851357386621819  0.5116646766764148  0.22388834763904378  1.0000
  O   O4        1.0  0.31486426190577604  0.4883353235658598  0.7761116520939414  1.0000
  F   F1        1.0  0.1460307472551227  0.170316598059166  0.04784487349399439  1.0000
  F   F2        1.0  0.8539692533128352  0.8296834021831088  0.9521551262389907  1.0000
  F   F3        1.0  0.7909334648185833  0.3689501111010048  0.9739707983099766  1.0000
  F   F4        1.0  0.20906653574937456  0.6310498891412697  0.02602920142300849  1.0000
  S   S1        1.0  0.7142515523399641  0.9898948582521357  0.3671791263840819  1.0000
  S   S2        1.0  0.28574844822799395  0.010105141990138816  0.6328208733489032  1.0000
