data_image0
_chemical_formula_structural       H30C30N4O4F2S2
_chemical_formula_sum              "H30 C30 N4 O4 F2 S2"
_cell_length_a       3.7956312754868047
_cell_length_b       13.357695783954313
_cell_length_c       15.26555222733913
_cell_angle_alpha    65.29887796273982
_cell_angle_beta     85.72332437781331
_cell_angle_gamma    86.99343475946098

_space_group_name_H-M_alt    "P 1"
_space_group_IT_number       1

loop_
  _space_group_symop_operation_xyz
  'x, y, z'

loop_
  _atom_site_type_symbol
  _atom_site_label
  _atom_site_symmetry_multiplicity
  _atom_site_fract_x
  _atom_site_fract_y
  _atom_site_fract_z
  _atom_site_occupancy
  H   H1        1.0  0.3353024115298746  0.7571308903987026  0.5688437787854096  1.0000
  H   H2        1.0  0.6646975871252917  0.2428691092985619  0.431156221120579  1.0000
  H   H3        1.0  0.41683838870213985  0.8913041166229104  0.5590290319622366  1.0000
  H   H4        1.0  0.5831616124234449  0.10869588383523594  0.4409709679355641  1.0000
  H   H5        1.0  0.35147880639408513  0.9004659809283173  0.26550316044424455  1.0000
  H   H6        1.0  0.648521194895409  0.09953401877923188  0.7344968394556066  1.0000
  H   H7        1.0  0.7761513035109301  0.6447335512583465  0.519166973408373  1.0000
  H   H8        1.0  0.2238486977785642  0.35526644844920274  0.48083302649147797  1.0000
  H   H9        1.0  0.7860529969664819  0.5193195345887867  0.43263499491964  1.0000
  H   H10       1.0  0.21394700432301228  0.4806804651187625  0.5673650049802109  1.0000
  H   H11       1.0  0.11669277602475985  0.7147448077164159  0.16897352387237066  1.0000
  H   H12       1.0  0.8833072252647344  0.28525519199113336  0.8310264760274804  1.0000
  H   H13       1.0  0.5463895545983316  0.7497211416350983  0.12038945726306839  1.0000
  H   H14       1.0  0.4536104466911626  0.2502788580724508  0.8796105426367826  1.0000
  H   H15       1.0  0.12371169456065181  0.9034247624086671  0.03810827836399942  1.0000
  H   H16       1.0  0.8762883067288426  0.09657523729888202  0.9618917215358516  1.0000
  H   H17       1.0  0.4284837073231538  0.9468207925527393  0.09695431935885858  1.0000
  H   H18       1.0  0.5715162938024307  0.05317920790540701  0.9030456805389422  1.0000
  H   H19       1.0  0.9938787455669911  0.91326063389977  0.14852846176078105  1.0000
  H   H20       1.0  0.006121252924265643  0.08673936654809164  0.8514715381431573  1.0000
  H   H21       1.0  0.37346543182132785  0.4364491088854282  0.7411867871883772  1.0000
  H   H22       1.0  0.626534566669929  0.5635508915624334  0.2588132127155611  1.0000
  H   H23       1.0  0.8644294917208215  0.7800835750791181  0.677357102778644  1.0000
  H   H24       1.0  0.13557050927330294  0.21991642503858722  0.32264289784139044  1.0000
  H   H25       1.0  0.6941662891351398  0.8876529637448882  0.7746411791337999  1.0000
  H   H26       1.0  0.3058337095200267  0.11234703595237623  0.2253588207721886  1.0000
  H   H27       1.0  0.14871299569990118  0.6316392967093453  0.023123464565915314  1.0000
  H   H28       1.0  0.8512870055895929  0.3683607029982039  0.9768765353339357  1.0000
  H   H29       1.0  0.3190696440448407  0.5240371619449068  0.9245724043961999  1.0000
  H   H30       1.0  0.6809303572446536  0.47596283776264237  0.07542759550365105  1.0000
  C   C1        1.0  0.45068588327913384  0.7410045889682036  0.26216226201655063  1.0000
  C   C2        1.0  0.549314115212123  0.25899541147965816  0.7378377378873878  1.0000
  C   C3        1.0  0.44526216862224516  0.8159316807180381  0.30396881916284657  1.0000
  C   C4        1.0  0.5547378323718792  0.1840683193996672  0.6960311814571879  1.0000
  C   C5        1.0  0.5618164803950463  0.7829642961138923  0.3969647005861894  1.0000
  C   C6        1.0  0.43818352059907806  0.2170357040038129  0.6030353000338451  1.0000
  C   C7        1.0  0.6812846436485697  0.6739050257291208  0.44677001043655296  1.0000
  C   C8        1.0  0.31871535484268715  0.32609497471874094  0.5532299894673853  1.0000
  C   C9        1.0  0.6870602903933454  0.604362910797016  0.3995621192238623  1.0000
  C   C10       1.0  0.3129397107322393  0.3956370896611303  0.6004378806739386  1.0000
  C   C11       1.0  0.330336438738249  0.7705166979339653  0.16252219084516276  1.0000
  C   C12       1.0  0.6696635597530077  0.22948330251389643  0.8374778090587757  1.0000
  C   C13       1.0  0.21261683005535917  0.890176953688746  0.10877225957548839  1.0000
  C   C14       1.0  0.7873831712341351  0.10982304601880291  0.8912277403243626  1.0000
  C   C15       1.0  0.5630975565725577  0.8660183268828285  0.43853597672681804  1.0000
  C   C16       1.0  0.4369024445530268  0.13398167357531773  0.5614640231709828  1.0000
  C   C17       1.0  0.10408953834466494  0.6453324113583324  0.7949839491394951  1.0000
  C   C18       1.0  0.8959104603105016  0.3546675883389322  0.20501605076649357  1.0000
  C   C19       1.0  0.9300871138184739  0.7481136475582919  0.7525967493838903  1.0000
  C   C20       1.0  0.06991288454132262  0.2518863525491287  0.24740325124228185  1.0000
  C   C21       1.0  0.8346946295638334  0.8085640605483096  0.8063402889723776  1.0000
  C   C22       1.0  0.16530537172566084  0.19143593915923948  0.19365971092747336  1.0000
  C   C23       1.0  0.9173286242328383  0.764314939586761  0.9024387945455672  1.0000
  C   C24       1.0  0.08267137425841856  0.23568506086110083  0.09756120535837104  1.0000
  C   C25       1.0  0.09099444918810487  0.6630114652988222  0.9472805778370241  1.0000
  C   C26       1.0  0.9090055519374798  0.3369885351593241  0.05271942206077666  1.0000
  C   C27       1.0  0.18322473829150832  0.6036079455230943  0.8923925101922737  1.0000
  C   C28       1.0  0.8167752627026161  0.3963920545946111  0.1076074904277608  1.0000
  C   C29       1.0  0.1991757245537441  0.5812828839311219  0.7365976625693297  1.0000
  C   C30       1.0  0.8008242741014223  0.4187171157661425  0.2634023373366589  1.0000
  N   N1        1.0  0.5743035812002517  0.6366357070278729  0.31047661922230385  1.0000
  N   N2        1.0  0.42569641745491466  0.3633642926693917  0.6895233806836847  1.0000
  N   N3        1.0  0.4416936237411285  0.8339295806065558  0.5297391178462981  1.0000
  N   N4        1.0  0.5583063775483657  0.16607041910099332  0.470260882053553  1.0000
  O   O1        1.0  0.16666386926571938  0.6202443928962007  0.6475978377833935  1.0000
  O   O2        1.0  0.8333361318598651  0.37975560756194576  0.35240216211440734  1.0000
  O   O3        1.0  0.3188228499250129  0.48013840081098813  0.7869206212584505  1.0000
  O   O4        1.0  0.6811771513644813  0.5198615988965611  0.21307937864140045  1.0000
  F   F1        1.0  0.8187216043981389  0.8231461391930871  0.9555451261773342  1.0000
  F   F2        1.0  0.18127839425702758  0.17685386050417745  0.0444548737286545  1.0000
  S   S1        1.0  0.7226333768207007  0.9904097163023969  0.3679986148243872  1.0000
  S   S2        1.0  0.2773666218344658  0.009590283394867533  0.6320013850816014  1.0000
