data_image0
_chemical_formula_structural       H50C110N8F20
_chemical_formula_sum              "H50 C110 N8 F20"
_cell_length_a       7.3469775985561325
_cell_length_b       15.155012341199765
_cell_length_c       18.44160069518261
_cell_angle_alpha    95.62673139178284
_cell_angle_beta     90.06583824285482
_cell_angle_gamma    92.27786713694954

_space_group_name_H-M_alt    "P 1"
_space_group_IT_number       1

loop_
  _space_group_symop_operation_xyz
  'x, y, z'

loop_
  _atom_site_type_symbol
  _atom_site_label
  _atom_site_symmetry_multiplicity
  _atom_site_fract_x
  _atom_site_fract_y
  _atom_site_fract_z
  _atom_site_occupancy
  H   H1        1.0  0.4506415908406263  0.8642308310557366  0.04686112279944084  1.0000
  H   H2        1.0  0.5493584093445821  0.13576916911744916  0.9531388775223273  1.0000
  H   H3        1.0  0.4030063729462503  0.6272533203509906  0.17046460879350459  1.0000
  H   H4        1.0  0.5969936272442973  0.37274667982087706  0.8295353909859129  1.0000
  H   H5        1.0  0.4270234611512913  0.5129277883884169  0.3750455650526626  1.0000
  H   H6        1.0  0.5729765390392562  0.48707221178345084  0.6249544347267548  1.0000
  H   H7        1.0  0.6072772162837043  0.7847532065607161  0.3634553860353157  1.0000
  H   H8        1.0  0.3927227839015039  0.2152467936124696  0.6365446142864525  1.0000
  H   H9        1.0  0.7264769587965991  0.14361697624279132  0.16210199236351386  1.0000
  H   H10       1.0  0.2735230413886093  0.8563830239303943  0.8378980079582543  1.0000
  H   H11       1.0  0.3553098238671784  0.49829429856836244  0.24243563255303813  1.0000
  H   H12       1.0  0.6446901762631949  0.5017057009399374  0.7575643671739538  1.0000
  H   H13       1.0  0.5574526558255131  0.6552181828386509  0.4350672410008089  1.0000
  H   H14       1.0  0.44254734436503446  0.3447818173332168  0.5649327587786085  1.0000
  H   H15       1.0  0.6964790778331577  0.013946432527629933  0.23606969254416618  1.0000
  H   H16       1.0  0.30352092235738987  0.9860535676442377  0.7639303072352513  1.0000
  H   H17       1.0  0.2107359661062041  0.014045002198105103  0.23454203798241366  1.0000
  H   H18       1.0  0.78926403401883  0.9859549973115126  0.765457962286929  1.0000
  H   H19       1.0  0.24091454025484071  0.14283418455319002  0.1591111103590876  1.0000
  H   H20       1.0  0.759085458514675  0.8571658149578427  0.8408888893653269  1.0000
  H   H21       1.0  0.9453757734960954  0.8654547545364318  0.048828666701828456  1.0000
  H   H22       1.0  0.05462422662893896  0.13454524497318598  0.9511713335675143  1.0000
  H   H23       1.0  0.7602275017813855  0.27887940520122934  0.9245966153307973  1.0000
  H   H24       1.0  0.2397724984038228  0.7211205949719565  0.07540338499097098  1.0000
  H   H25       1.0  0.8071279933435039  0.2186496718589565  0.04420647801086614  1.0000
  H   H26       1.0  0.1928720068417045  0.7813503283142292  0.955793522310902  1.0000
  H   H27       1.0  0.06967838527460166  0.47325369308149384  0.11880873235213904  1.0000
  H   H28       1.0  0.9303216149159458  0.5267463070903738  0.8811912674272784  1.0000
  H   H29       1.0  0.6477983886912319  0.40521797401492726  0.32714222286408895  1.0000
  H   H30       1.0  0.3522016114391415  0.5947820254933726  0.6728577768629032  1.0000
  H   H31       1.0  0.7129841053646419  0.3753506111244128  0.4544587676154444  1.0000
  H   H32       1.0  0.28701589476573164  0.624649388383887  0.5455412321115475  1.0000
  H   H33       1.0  0.5117744582944511  0.10546220980696293  0.4058705345083543  1.0000
  H   H34       1.0  0.48822554053523876  0.8945377903676377  0.5941294652684858  1.0000
  H   H35       1.0  0.6462912826800395  0.22436729628691876  0.4935416873277456  1.0000
  H   H36       1.0  0.3537087175105079  0.775632703884949  0.5064583124516719  1.0000
  H   H37       1.0  0.44489104978418104  0.1355400668135205  0.27821189725908624  1.0000
  H   H38       1.0  0.5551089490401697  0.8644599333623983  0.7217881030601044  1.0000
  H   H39       1.0  0.561521956681173  0.4753530917050714  0.12036423140096637  1.0000
  H   H40       1.0  0.4384780435040353  0.5246469084681145  0.8796357689208018  1.0000
  H   H41       1.0  0.3154501221220443  0.21785838689432832  0.04409702725695419  1.0000
  H   H42       1.0  0.6845498767076456  0.7821416132802723  0.9559029725198858  1.0000
  H   H43       1.0  0.28218304347962037  0.27492290431121047  0.9223551617699408  1.0000
  H   H44       1.0  0.717816956705588  0.7250770958619753  0.07764483855182731  1.0000
  H   H45       1.0  0.17701237789968455  0.9648853046051684  0.4639293562598947  1.0000
  H   H46       1.0  0.822987622290863  0.03511469556669924  0.5360706435195228  1.0000
  H   H47       1.0  0.24954874241736685  0.0662408677539076  0.5753382485776972  1.0000
  H   H48       1.0  0.7504512577731807  0.9337591324179602  0.42466175120172023  1.0000
  H   H49       1.0  0.4256151929061856  0.8994181033975911  0.3884318296897988  1.0000
  H   H50       1.0  0.5743848072790227  0.1005818967755946  0.6115681706319693  1.0000
  C   C1        1.0  0.5126258452806949  0.9244893975771651  0.07478131305490618  1.0000
  C   C2        1.0  0.4873741549098526  0.07551060259470267  0.9252186867245114  1.0000
  C   C3        1.0  0.5323664765867935  0.0006622589133729323  0.038141907520431825  1.0000
  C   C4        1.0  0.46763352359841487  0.9993377412598129  0.9618580928013362  1.0000
  C   C5        1.0  0.43319026650802434  0.6337111006392908  0.22866252712425159  1.0000
  C   C6        1.0  0.5668097336825231  0.3662888995325769  0.7713374726551658  1.0000
  C   C7        1.0  0.4494883746518473  0.5694259417527718  0.34353922250338215  1.0000
  C   C8        1.0  0.550511625533361  0.43057405842041396  0.656460777818386  1.0000
  C   C9        1.0  0.5492681497493233  0.7222890535251425  0.33755520036832043  1.0000
  C   C10       1.0  0.45073185044122416  0.27771094664672524  0.662444799411097  1.0000
  C   C11       1.0  0.5709533456729067  0.9280246998971009  0.1475290053136078  1.0000
  C   C12       1.0  0.4290466545176409  0.07197530027476688  0.8524709944658097  1.0000
  C   C13       1.0  0.6650163730690699  0.08056081174530325  0.13843937165157072  1.0000
  C   C14       1.0  0.3349836270613035  0.9194391877629965  0.8615606280754212  1.0000
  C   C15       1.0  0.40726681706897455  0.5615475118989025  0.26914699724053054  1.0000
  C   C16       1.0  0.5927331831215731  0.4384524882729651  0.7308530025388869  1.0000
  C   C17       1.0  0.54949944602365  0.8534993585742371  0.18754531249721376  1.0000
  C   C18       1.0  0.4505005541668975  0.1465006415976305  0.8124546872822037  1.0000
  C   C19       1.0  0.521680550724888  0.6496723704942954  0.37744786973020306  1.0000
  C   C20       1.0  0.4783194494656596  0.3503276296775724  0.6225521300492145  1.0000
  C   C21       1.0  0.648973989884197  0.008711465093923808  0.17989766940023394  1.0000
  C   C22       1.0  0.3510260103063505  0.9912885350779439  0.8201023303791836  1.0000
  C   C23       1.0  0.503493053653791  0.715434875255892  0.26282819129434826  1.0000
  C   C24       1.0  0.4965069465367564  0.28456512491597574  0.7371718084850692  1.0000
  C   C25       1.0  0.5288310475904168  0.7896151555992923  0.22247889071902263  1.0000
  C   C26       1.0  0.4711689526001307  0.21038484457257534  0.7775211090603948  1.0000
  C   C27       1.0  0.03377097133402886  0.0007179166979676021  0.03801313970923862  1.0000
  C   C28       1.0  0.9662290288565186  0.9992820834739001  0.9619868600701788  1.0000
  C   C29       1.0  0.05944875804750763  0.7247032693451008  0.3401300605781647  1.0000
  C   C30       1.0  0.9405512421430399  0.27529673082676687  0.6598699392012528  1.0000
  C   C31       1.0  0.004565065203895824  0.7206459932528732  0.26675918769849843  1.0000
  C   C32       1.0  0.9954349349866516  0.2793540069189947  0.7332408120809191  1.0000
  C   C33       1.0  0.15983462891563038  0.008930156723912354  0.1787310811892018  1.0000
  C   C34       1.0  0.8401653712695779  0.9910698434492733  0.8212689191325664  1.0000
  C   C35       1.0  0.17562013652193562  0.08007748029579417  0.13660197370582644  1.0000
  C   C36       1.0  0.8243798636632726  0.9199225198773916  0.8633980266159417  1.0000
  C   C37       1.0  0.9209372922967187  0.6402684273002437  0.2362872618286342  1.0000
  C   C38       1.0  0.07906270788848965  0.35973157287294205  0.7637127384931339  1.0000
  C   C39       1.0  0.9445434522038397  0.5752609364988794  0.34964078501570517  1.0000
  C   C40       1.0  0.055456547981368585  0.42473906367430636  0.650359215306063  1.0000
  C   C41       1.0  0.030881234935698092  0.7932487819938268  0.22542599638227423  1.0000
  C   C42       1.0  0.9691187638886526  0.20675121818209205  0.7745740039369164  1.0000
  C   C43       1.0  0.012038515836355795  0.9252864241087361  0.07561608544019002  1.0000
  C   C44       1.0  0.9879614843541917  0.07471357606313164  0.9243839143392276  1.0000
  C   C45       1.0  0.0326714927019994  0.6529277997000889  0.38074749244750455  1.0000
  C   C46       1.0  0.9673285074832089  0.34707220047309684  0.6192525078742637  1.0000
  C   C47       1.0  0.052279594157259655  0.8555702089503837  0.18891738983706752  1.0000
  C   C48       1.0  0.9477204060279487  0.144429791222802  0.8110826104847007  1.0000
  C   C49       1.0  0.07509666863443037  0.9291227287916786  0.14780840549029953  1.0000
  C   C50       1.0  0.924903331556117  0.0708772713801892  0.8521915942891181  1.0000
  C   C51       1.0  0.8915236191761955  0.5682418638948347  0.2766523044671302  1.0000
  C   C52       1.0  0.10847638101435204  0.431758136277033  0.7233476953122873  1.0000
  C   C53       1.0  0.9689347612679327  0.4549119974347794  0.008600363591431175  1.0000
  C   C54       1.0  0.031065237556418056  0.5450880027411394  0.9913996367277595  1.0000
  C   C55       1.0  0.8291527438822163  0.3200038088636215  0.9691422246680874  1.0000
  C   C56       1.0  0.1708472563029921  0.6799961913095642  0.030857775653680714  1.0000
  C   C57       1.0  0.9425036270820463  0.3414742182247624  0.09190451631802769  1.0000
  C   C58       1.0  0.05749637310316201  0.6585257819484234  0.9080954840037405  1.0000
  C   C59       1.0  0.04233487481061484  0.27009146386581406  0.29293503608611765  1.0000
  C   C60       1.0  0.9576651253799326  0.7299085363060537  0.7070649636932999  1.0000
  C   C61       1.0  0.0022182208543817393  0.2891121554875746  0.2215909633272341  1.0000
  C   C62       1.0  0.9977817792706525  0.7108878440220432  0.7784090369421084  1.0000
  C   C63       1.0  0.1304111160292424  0.33467320373161547  0.34228680127514954  1.0000
  C   C64       1.0  0.8695888840957919  0.6653267957780024  0.6577131989941931  1.0000
  C   C65       1.0  0.17132193205983404  0.3196067300881359  0.41345098804155606  1.0000
  C   C66       1.0  0.8286780680705393  0.6803932694201639  0.5865490116854359  1.0000
  C   C67       1.0  0.9986159474524081  0.18816128786855824  0.31954327503507285  1.0000
  C   C68       1.0  0.0013840513772817764  0.8118387123060424  0.6804567247417672  1.0000
  C   C69       1.0  0.8552296986018644  0.28583891707315495  0.035637218802704235  1.0000
  C   C70       1.0  0.144770301588683  0.7141610830987127  0.9643627809767134  1.0000
  C   C71       1.0  0.04123719776611498  0.1710319680667594  0.390120838570385  1.0000
  C   C72       1.0  0.9587628023589193  0.8289680314428585  0.6098791616989576  1.0000
  C   C73       1.0  0.00024302879572426586  0.4276141509118837  0.07766311243702832  1.0000
  C   C74       1.0  0.9997569713948231  0.5723858492599839  0.9223368873423893  1.0000
  C   C75       1.0  0.9732136729673236  0.3122951620603981  0.16131709009661407  1.0000
  C   C76       1.0  0.026786325857027077  0.6877048381155205  0.8386829102225766  1.0000
  C   C77       1.0  0.12873366589235136  0.23676193315094277  0.43730189311892387  1.0000
  C   C78       1.0  0.8712663342981961  0.763238067020925  0.5626981066604937  1.0000
  C   C79       1.0  0.5407075619287675  0.27271044750798945  0.29455242218565386  1.0000
  C   C80       1.0  0.4592924381962668  0.7272895520016285  0.7054475780836889  1.0000
  C   C81       1.0  0.6175449335899416  0.34001244872796216  0.34499081310659035  1.0000
  C   C82       1.0  0.38245506653509265  0.6599875507816557  0.6550091871627524  1.0000
  C   C83       1.0  0.6543531143964308  0.32271050731157547  0.4160417831090077  1.0000
  C   C84       1.0  0.34564688579411673  0.6772894928602923  0.5839582166704099  1.0000
  C   C85       1.0  0.5409421569808696  0.1710747123620646  0.3884593822445879  1.0000
  C   C86       1.0  0.45905784314416465  0.8289252871475533  0.6115406180247547  1.0000
  C   C87       1.0  0.6166733681228489  0.2382570761827058  0.43803005118065447  1.0000
  C   C88       1.0  0.3833266320623595  0.7617429239904799  0.5619699491411136  1.0000
  C   C89       1.0  0.47141700856682967  0.4546203624531608  0.00856141507230668  1.0000
  C   C90       1.0  0.5285829915635438  0.545379637055139  0.9914385846546853  1.0000
  C   C91       1.0  0.5030399160688781  0.18774151614065143  0.3172226545066599  1.0000
  C   C92       1.0  0.4969600841216695  0.8122584840312163  0.6827773452727576  1.0000
  C   C93       1.0  0.4969034418332624  0.4289292963222053  0.0784799403269584  1.0000
  C   C94       1.0  0.5030965582917718  0.5710707031874126  0.9215200599423841  1.0000
  C   C95       1.0  0.36166125091056084  0.28528446189012824  0.03555544540417143  1.0000
  C   C96       1.0  0.6383387492799865  0.7147155382817395  0.9644445543752461  1.0000
  C   C97       1.0  0.5019417021073675  0.29247158240507537  0.222922017763225  1.0000
  C   C98       1.0  0.49805829671698315  0.7075284177708433  0.7770779825559656  1.0000
  C   C99       1.0  0.47101627102408217  0.31418040829348004  0.1623168322720375  1.0000
  C   C100      1.0  0.5289837291664653  0.6858195918783877  0.8376831675073801  1.0000
  C   C101      1.0  0.3430580023800787  0.3175014701943251  0.9679361252867684  1.0000
  C   C102      1.0  0.6569419977449554  0.6824985293152926  0.032063874982574146  1.0000
  C   C103      1.0  0.4421806218746263  0.34237202661864696  0.09255257281316952  1.0000
  C   C104      1.0  0.5578193782504078  0.6576279728909709  0.9074474274561731  1.0000
  C   C105      1.0  0.3183475729931382  0.9804781364637369  0.47974244362073337  1.0000
  C   C106      1.0  0.6816524271974093  0.019521863708130735  0.5202575561586842  1.0000
  C   C107      1.0  0.3594123067429521  0.03745352001890674  0.542315445259558  1.0000
  C   C108      1.0  0.6405876934475954  0.962546480152961  0.4576845545198597  1.0000
  C   C109      1.0  0.45883331211595607  0.943222467140982  0.43744658226131206  1.0000
  C   C110      1.0  0.5411666880692523  0.056777533032203766  0.5625534180604561  1.0000
  N   N1        1.0  0.6085813419897274  0.0778410872917599  0.06915213537551547  1.0000
  N   N2        1.0  0.3914186582008201  0.9221589128801078  0.930847864403902  1.0000
  N   N3        1.0  0.11462589870798452  0.07729901827599232  0.0679665062824692  1.0000
  N   N4        1.0  0.8853741014772238  0.9227009818971934  0.9320334940392989  1.0000
  N   N5        1.0  0.882399534566936  0.40206475906566264  0.9551205215022364  1.0000
  N   N6        1.0  0.11760046556343737  0.5979352404426371  0.04487947822475557  1.0000
  N   N7        1.0  0.3965926564161382  0.3995180896437874  0.9537665966072936  1.0000
  N   N8        1.0  0.6034073437142352  0.6004819098645124  0.04623340311969842  1.0000
  F   F1        1.0  0.09034270888753397  0.6571236394444424  0.4505118819211823  1.0000
  F   F2        1.0  0.9096572898819818  0.3428763600665903  0.5494881178032321  1.0000
  F   F3        1.0  0.13921933829845878  0.8001705849937033  0.37262154868024316  1.0000
  F   F4        1.0  0.8607806618867495  0.1998294151794824  0.627378451641525  1.0000
  F   F5        1.0  0.8102752755263896  0.49246097879225686  0.24580236569215727  1.0000
  F   F6        1.0  0.18972472465881868  0.5075390213809289  0.7541976346296109  1.0000
  F   F7        1.0  0.8647085798715803  0.6327682010929908  0.16691244277926046  1.0000
  F   F8        1.0  0.13529142025879307  0.367231798415309  0.8330875569477315  1.0000
  F   F9        1.0  0.9100122754562174  0.5080997430999442  0.39093614214741523  1.0000
  F   F10       1.0  0.08998772473432996  0.4919002570719235  0.6090638576320022  1.0000
  F   F11       1.0  0.17788965702185783  0.4140411258402021  0.31957995086098645  1.0000
  F   F12       1.0  0.8221103431633505  0.5859588743329837  0.6804200494607817  1.0000
  F   F13       1.0  0.9979542248199895  0.09115873229844862  0.4132294807512032  1.0000
  F   F14       1.0  0.002045775310383785  0.9088412672098511  0.5867705189757888  1.0000
  F   F15       1.0  0.1713918597198814  0.22005845447278646  0.5054911559086733  1.0000
  F   F16       1.0  0.828608140470666  0.7799415456990814  0.4945088438707442  1.0000
  F   F17       1.0  0.2527701600415769  0.3842148903167937  0.4593039040063545  1.0000
  F   F18       1.0  0.7472298400887964  0.6157851091915061  0.5406960957206374  1.0000
  F   F19       1.0  0.912649383347659  0.12317808435003659  0.27583337850409967  1.0000
  F   F20       1.0  0.08735061683754929  0.8768219158231492  0.7241666218176684  1.0000
