data_image0
_chemical_formula_structural       H68C80N28O16
_chemical_formula_sum              "H68 C80 N28 O16"
_cell_length_a       17.382251974674656
_cell_length_b       7.252257401094107
_cell_length_c       14.155214880619383
_cell_angle_alpha    90.0
_cell_angle_beta     94.73788619471551
_cell_angle_gamma    90.0

_space_group_name_H-M_alt    "P 1"
_space_group_IT_number       1

loop_
  _space_group_symop_operation_xyz
  'x, y, z'

loop_
  _atom_site_type_symbol
  _atom_site_label
  _atom_site_symmetry_multiplicity
  _atom_site_fract_x
  _atom_site_fract_y
  _atom_site_fract_z
  _atom_site_occupancy
  H   H1        1.0  0.385755973508883  0.8199008393032134  0.9295820868565028  1.0000
  H   H2        1.0  0.6142440261299226  0.31990083937864566  0.5704179128890181  1.0000
  H   H3        1.0  0.6142440264767307  0.18009916054592218  0.07041791297140981  1.0000
  H   H4        1.0  0.38575597385569116  0.68009916047049  0.42958208693889455  1.0000
  H   H5        1.0  0.9627395837969676  0.6128484738185765  0.12145962437426149  1.0000
  H   H6        1.0  0.037260415967165554  0.11284847389400873  0.3785403761956812  1.0000
  H   H7        1.0  0.037260416197560604  0.3871515260305591  0.8785403761609245  1.0000
  H   H8        1.0  0.9627395840273627  0.8871515259551269  0.6214596243395047  1.0000
  H   H9        1.0  0.11855602686236456  0.49507359728549294  0.11331695185717405  1.0000
  H   H10       1.0  0.881443972892854  0.9950735972100607  0.3866830480054953  1.0000
  H   H11       1.0  0.8814439731232491  0.5049264025636426  0.8866830479707386  1.0000
  H   H12       1.0  0.11855602709275961  0.004926402639074833  0.6133169518224173  1.0000
  H   H13       1.0  0.20262425530759082  0.49941266555894565  0.06114309348706442  1.0000
  H   H14       1.0  0.7973757444565424  0.9994126654835134  0.4388569070828783  1.0000
  H   H15       1.0  0.7973757446869374  0.50058733429019  0.9388569070481215  1.0000
  H   H16       1.0  0.20262425553798585  0.0005873343656221294  0.5611430934523076  1.0000
  H   H17       1.0  0.13049864364170846  0.717338722590728  0.025977155981086526  1.0000
  H   H18       1.0  0.8695013566907133  0.2173387226661602  0.47402284392921784  1.0000
  H   H19       1.0  0.8695013563439051  0.28266127725840756  0.974022843846826  1.0000
  H   H20       1.0  0.13049864329490035  0.7826612771829753  0.5259771558986949  1.0000
  H   H21       1.0  0.048409026840724075  0.22006262350247358  0.14309461333364745  1.0000
  H   H22       1.0  0.9515909734916979  0.7200626234270413  0.35690538657665694  1.0000
  H   H23       1.0  0.9515909731448897  0.7799373763466619  0.8569053864942652  1.0000
  H   H24       1.0  0.04840902649391596  0.2799373764220942  0.6430946132512557  1.0000
  H   H25       1.0  0.26870366994001965  0.20705715709614184  0.0229902722548328  1.0000
  H   H26       1.0  0.731296329815199  0.7070571570207096  0.47700972760783655  1.0000
  H   H27       1.0  0.731296330045594  0.7929428427529938  0.9770097275730798  1.0000
  H   H28       1.0  0.26870367017041474  0.292942842828426  0.522990272220076  1.0000
  H   H29       1.0  0.7015221189636489  0.5152554099136436  0.6831532379504991  1.0000
  H   H30       1.0  0.2984778812523598  0.015255409989075807  0.8168467618426568  1.0000
  H   H31       1.0  0.2984778810219647  0.48474458993549197  0.3168467618774135  1.0000
  H   H32       1.0  0.7015221187332539  0.9847445898600597  0.18315323798525585  1.0000
  H   H33       1.0  0.7471539017310143  0.5531529313058843  0.793973975313191  1.0000
  H   H34       1.0  0.2528460984849944  0.05315293138131652  0.7060260244799645  1.0000
  H   H35       1.0  0.25284609825459936  0.44684706854325124  0.20602602451472143  1.0000
  H   H36       1.0  0.7471539015006193  0.946847068467819  0.29397397534794795  1.0000
  H   H37       1.0  0.45760438087165445  0.2714538578985076  0.8765874944425689  1.0000
  H   H38       1.0  0.5423956187760657  0.7714538578230754  0.6234125060102252  1.0000
  H   H39       1.0  0.5423956191139592  0.7285461419506281  0.1234125053853436  1.0000
  H   H40       1.0  0.45760438121846264  0.22854614202606016  0.37658749452496076  1.0000
  H   H41       1.0  0.3612728769935671  0.5069840377487573  0.9299639937985796  1.0000
  H   H42       1.0  0.638727123231356  0.00698403782418957  0.5700360067018494  1.0000
  H   H43       1.0  0.6387271230009611  0.4930159621003782  0.0700360067366062  1.0000
  H   H44       1.0  0.36127287675425757  0.9930159620249459  0.42996399312606315  1.0000
  H   H45       1.0  0.5117886560977328  0.9377406128709677  0.8904832194472969  1.0000
  H   H46       1.0  0.48821134411827594  0.43774061294639993  0.6095167803458588  1.0000
  H   H47       1.0  0.4882113438878809  0.062259386978167866  0.10951678038061562  1.0000
  H   H48       1.0  0.5117886558673377  0.5622593869027356  0.3904832194820538  1.0000
  H   H49       1.0  0.6134505797893646  0.7286193522588997  0.8402743598882308  1.0000
  H   H50       1.0  0.38654942042664414  0.2286193523343319  0.659725639904925  1.0000
  H   H51       1.0  0.3865494201962491  0.2713806475902359  0.15972563993968178  1.0000
  H   H52       1.0  0.6134505795589695  0.7713806475148036  0.34027435992298766  1.0000
  H   H53       1.0  0.8277217664834521  0.3843871633099287  0.7304694206732988  1.0000
  H   H54       1.0  0.17227823315535346  0.8843871632344965  0.7695305790722221  1.0000
  H   H55       1.0  0.17227823350216157  0.6156128365392068  0.2695305791546137  1.0000
  H   H56       1.0  0.8277217668302602  0.11561283661463906  0.2304694207556906  1.0000
  H   H57       1.0  0.9355306249649317  0.248756930459726  0.6562680500253758  1.0000
  H   H58       1.0  0.06446937525107718  0.7487569303842937  0.84373194976778  1.0000
  H   H59       1.0  0.06446937502068213  0.7512430693894097  0.3437319498025368  1.0000
  H   H60       1.0  0.9355306247345365  0.2512430694648418  0.1562680500601325  1.0000
  H   H61       1.0  0.839389366391113  0.7256804797366994  0.6526474768691274  1.0000
  H   H62       1.0  0.16061063382489582  0.2256804798121315  0.8473525229240285  1.0000
  H   H63       1.0  0.16061063359450076  0.2743195201124363  0.34735252295878516  1.0000
  H   H64       1.0  0.8393893661607178  0.7743195200370041  0.1526474769038842  1.0000
  H   H65       1.0  0.7197923240043352  0.8463109581678726  0.7225160725823445  1.0000
  H   H66       1.0  0.28020767621167353  0.3463109582433048  0.7774839272108114  1.0000
  H   H67       1.0  0.2802076759812785  0.15368904168126293  0.27748392724556814  1.0000
  H   H68       1.0  0.7197923237739402  0.6536890416058307  0.22251607261710127  1.0000
  C   C1        1.0  0.27022060664416775  0.8405985354408814  0.9855250586803987  1.0000
  C   C2        1.0  0.7297793935718411  0.34059853551631364  0.514474941112757  1.0000
  C   C3        1.0  0.729779393341446  0.15940146440825412  0.014474941147513777  1.0000
  C   C4        1.0  0.2702206064137727  0.659401464332822  0.48552505871515556  1.0000
  C   C5        1.0  0.20611677023605662  0.9512249922292138  0.021649927358396284  1.0000
  C   C6        1.0  0.7938832300963652  0.4512249923046459  0.47835007255190803  1.0000
  C   C7        1.0  0.793883229749557  0.04877500761992189  0.9783500724695163  1.0000
  C   C8        1.0  0.20611676988924849  0.5487750075444896  0.5216499272760046  1.0000
  C   C9        1.0  0.1388259664659083  0.8617680432932694  0.0432930308847585  1.0000
  C   C10       1.0  0.8611740338665135  0.36176804336870155  0.45670696902554586  1.0000
  C   C11       1.0  0.8611740335197053  0.13823195655586623  0.9567069689431542  1.0000
  C   C12       1.0  0.1388259661191002  0.6382319564804341  0.5432930308023667  1.0000
  C   C13       1.0  0.08194465682639629  0.9583242148784584  0.08696517399737375  1.0000
  C   C14       1.0  0.9180553429288224  0.45832421495389064  0.4130348258652956  1.0000
  C   C15       1.0  0.9180553431592174  0.04167578497067716  0.9130348258305389  1.0000
  C   C16       1.0  0.08194465705679134  0.5416757862741259  0.586965173962617  1.0000
  C   C17       1.0  0.012766722140068566  0.8591148942203893  0.11728354015578603  1.0000
  C   C18       1.0  0.9872332776151501  0.35911489429582155  0.38271645970688334  1.0000
  C   C19       1.0  0.9872332778455452  0.14088510562874623  0.8827164596721266  1.0000
  C   C20       1.0  0.012766722370463614  0.640885105553314  0.6172835401210293  1.0000
  C   C21       1.0  0.09165918034517961  0.14619216078017996  0.10629329093887104  1.0000
  C   C22       1.0  0.9083408194100391  0.6461921607047478  0.39370670892379833  1.0000
  C   C23       1.0  0.9083408196404341  0.8538078404478366  0.8937067088890416  1.0000
  C   C24       1.0  0.09165918057557466  0.3538078391443878  0.6062932909041142  1.0000
  C   C25       1.0  0.15786279790227487  0.23976903243087688  0.08138753071611823  1.0000
  C   C26       1.0  0.842137202430147  0.7397690337343257  0.41861246919418615  1.0000
  C   C27       1.0  0.8421372020833389  0.7602309674182587  0.9186124691117945  1.0000
  C   C28       1.0  0.15786279755546673  0.2602309674936909  0.5813875306337264  1.0000
  C   C29       1.0  0.2153435680101917  0.13984689923540117  0.03952730634193511  1.0000
  C   C30       1.0  0.784656431745027  0.639846899159969  0.4604726935207342  1.0000
  C   C31       1.0  0.784656431975422  0.8601531006137344  0.9604726934859774  1.0000
  C   C32       1.0  0.21534356824950127  0.3601531006891666  0.5395273070144517  1.0000
  C   C33       1.0  0.5439647013768003  0.48045249462247896  0.8551040888719669  1.0000
  C   C34       1.0  0.4560352982620053  0.9804524945470467  0.6448959108735539  1.0000
  C   C35       1.0  0.45603529860881337  0.5195475066055376  0.14489591095594564  1.0000
  C   C36       1.0  0.5439647017236084  0.019547505302088826  0.3551040889543587  1.0000
  C   C37       1.0  0.47163976183383716  0.4174197318952438  0.8803238316188493  1.0000
  C   C38       1.0  0.5283602378138831  0.9174197318198115  0.6196761688339449  1.0000
  C   C39       1.0  0.5283602381606911  0.5825802679538917  0.11967616891633666  1.0000
  C   C40       1.0  0.4716397621717307  0.08258026802932399  0.3803238309939677  1.0000
  C   C41       1.0  0.4184337463097934  0.5421167813771842  0.9088639544832527  1.0000
  C   C42       1.0  0.5815662539062153  0.04211678145261636  0.5911360453099032  1.0000
  C   C43       1.0  0.5815662536758204  0.45788321847195146  0.09113604534465992  1.0000
  C   C44       1.0  0.4184337460793983  0.9578832183965192  0.40886395451800944  1.0000
  C   C45       1.0  0.5027695167323433  0.7887570688179125  0.8879475165009613  1.0000
  C   C46       1.0  0.49723048290646227  0.2887570688933446  0.6120524832445595  1.0000
  C   C47       1.0  0.4972304832532705  0.2112429310312231  0.11205248332695128  1.0000
  C   C48       1.0  0.5027695170791514  0.7112429309557909  0.3879475165833531  1.0000
  C   C49       1.0  0.5593131111642021  0.6707399035872801  0.8596642422900262  1.0000
  C   C50       1.0  0.440686888483518  0.17073990366271227  0.640335758162768  1.0000
  C   C51       1.0  0.4406868888303261  0.32926009626185554  0.1403357582451597  1.0000
  C   C52       1.0  0.5593131115110102  0.8292600975653043  0.35966424237241795  1.0000
  C   C53       1.0  0.5979763082260029  0.34112245928099233  0.8280798059996396  1.0000
  C   C54       1.0  0.4020236919900059  0.8411224592055602  0.6719201937935162  1.0000
  C   C55       1.0  0.40202369175961084  0.6588775405681432  0.17192019382827292  1.0000
  C   C56       1.0  0.5979763079956079  0.15887754064357545  0.3280798060343964  1.0000
  C   C57       1.0  0.6939621846143859  0.1852180053340842  0.7755725782589284  1.0000
  C   C58       1.0  0.3060378156105372  0.6852180052586521  0.7244274222415008  1.0000
  C   C59       1.0  0.30603781538014224  0.8147819945150514  0.22442742227625748  1.0000
  C   C60       1.0  0.6939621843839909  0.3147819945904836  0.2755725782936852  1.0000
  C   C61       1.0  0.7629380673588284  0.12545734654464086  0.7321425059276253  1.0000
  C   C62       1.0  0.23706193228889183  0.6254573464692087  0.7678574945251688  1.0000
  C   C63       1.0  0.2370619326356999  0.8745426533044947  0.26785749460756064  1.0000
  C   C64       1.0  0.7629380676967219  0.3745426533799269  0.23214250530274375  1.0000
  C   C65       1.0  0.825193026297219  0.2385820420189396  0.713219603768177  1.0000
  C   C66       1.0  0.1748069739277043  0.7385820419435074  0.7867803967322523  1.0000
  C   C67       1.0  0.17480697369730924  0.761417957830196  0.286780396767009  1.0000
  C   C68       1.0  0.825193026644027  0.2614179579056282  0.2132196038505687  1.0000
  C   C69       1.0  0.887515550075247  0.1607597490712494  0.6722174226283252  1.0000
  C   C70       1.0  0.11248445014076185  0.6607597489958172  0.8277825771648307  1.0000
  C   C71       1.0  0.1124844499103668  0.8392402507778862  0.32778257719958753  1.0000
  C   C72       1.0  0.8875155498448519  0.33924025085331844  0.17221742266308188  1.0000
  C   C73       1.0  0.8322161027112764  0.8711210428144622  0.6694905230067393  1.0000
  C   C74       1.0  0.16778389692752912  0.3711210428898944  0.8305094767387815  1.0000
  C   C75       1.0  0.16778389727433723  0.12887895703467345  0.3305094768211733  1.0000
  C   C76       1.0  0.8322161030580846  0.6288789569592412  0.16949052308913104  1.0000
  C   C77       1.0  0.7671850206734171  0.9376178717779853  0.708530901564392  1.0000
  C   C78       1.0  0.2328149795425916  0.4376178718534175  0.7914690982287638  1.0000
  C   C79       1.0  0.23281497931219655  0.06238212807115026  0.2914690982635205  1.0000
  C   C80       1.0  0.7671850204430221  0.562382127995718  0.2085309015991488  1.0000
  N   N1        1.0  0.1686725558932861  0.42593334725460563  0.10417987042200053  1.0000
  N   N2        1.0  0.8313274438619326  0.9259333471791734  0.3958201294406688  1.0000
  N   N3        1.0  0.8313274440923276  0.57406665259453  0.895820129405912  1.0000
  N   N4        1.0  0.16867255612368118  0.0740666526699622  0.6041798703872437  1.0000
  N   N5        1.0  0.43458169101780103  0.7238236606450371  0.9117932308771202  1.0000
  N   N6        1.0  0.5654183086210046  0.2238236607204693  0.5882067688684006  1.0000
  N   N7        1.0  0.5654183089678126  0.27617633920409845  0.08820676895079241  1.0000
  N   N8        1.0  0.43458169136460917  0.7761763391286662  0.4117932309595119  1.0000
  N   N9        1.0  0.5858095243774997  0.16192842104898716  0.8426722548684705  1.0000
  N   N10       1.0  0.41419047527022046  0.6619284209735549  0.6573277455843236  1.0000
  N   N11       1.0  0.4141904756081141  0.8380715788001484  0.157327744959442  1.0000
  N   N12       1.0  0.5858095247243078  0.3380715788755806  0.34267225495086234  1.0000
  N   N13       1.0  0.6449130564723901  0.06550604228806459  0.8102941404936418  1.0000
  N   N14       1.0  0.35508694374361877  0.5655060422126323  0.6897058592995141  1.0000
  N   N15       1.0  0.35508694351322373  0.934493957561071  0.18970585933427084  1.0000
  N   N16       1.0  0.6449130562419949  0.43449395763650317  0.3102941405283985  1.0000
  N   N17       1.0  0.6658154236537651  0.3612885223302625  0.7855538275486829  1.0000
  N   N18       1.0  0.33418457656224365  0.8612885222548303  0.7144461722444729  1.0000
  N   N19       1.0  0.3341845763318486  0.6387114775188731  0.2144461722792297  1.0000
  N   N20       1.0  0.66581542342337  0.1387114775943053  0.28555382758343967  1.0000
  N   N21       1.0  0.6947706702866637  0.5291973047483121  0.754818061917579  1.0000
  N   N22       1.0  0.30522932935214186  0.029197304823744257  0.7451819378279417  1.0000
  N   N23       1.0  0.30522932969894995  0.4708026951008235  0.24518193791033346  1.0000
  N   N24       1.0  0.6947706706334719  0.9708026950253913  0.2548180619999709  1.0000
  N   N25       1.0  0.8915130720589339  0.9808797973616894  0.6513049236815326  1.0000
  N   N26       1.0  0.1084869281570748  0.48087979743712156  0.8486950761116232  1.0000
  N   N27       1.0  0.10848692792667973  0.019120202487446246  0.34869507614637996  1.0000
  N   N28       1.0  0.8915130718285389  0.5191202024120141  0.1513049237162894  1.0000
  O   O1        1.0  0.2730338445017147  0.669283613577716  0.9997689158626567  1.0000
  O   O2        1.0  0.7269661551370908  0.16928361365314826  0.5002310838828642  1.0000
  O   O3        1.0  0.726966155483899  0.3307163862714195  0.00023108396525595496  1.0000
  O   O4        1.0  0.27303384484852283  0.8307163861959873  0.4997689159450484  1.0000
  O   O5        1.0  0.32135311923965537  0.9319072236708523  0.9423719196638569  1.0000
  O   O6        1.0  0.6786468804080646  0.4319072237462845  0.5576280807889372  1.0000
  O   O7        1.0  0.6786468807548729  0.06809277617828335  0.057628080871329  1.0000
  O   O8        1.0  0.32135311958646345  0.5680927761028511  0.4423719197462487  1.0000
  O   O9        1.0  0.014253028604543687  0.6780911456973514  0.10071674322394032  1.0000
  O   O10       1.0  0.9857469717367928  0.17809114577278368  0.3992832573936374  1.0000
  O   O11       1.0  0.9857469713899845  0.3219088541517841  0.8992832573112457  1.0000
  O   O12       1.0  0.01425302825773557  0.821908854076352  0.6007167431415484  1.0000
  O   O13       1.0  0.9603977342037112  0.9377220007351134  0.15566464404838184  1.0000
  O   O14       1.0  0.03960226556042202  0.4377220008105456  0.3443353565215609  1.0000
  O   O15       1.0  0.03960226579081706  0.06227799911402223  0.8443353564868041  1.0000
  O   O16       1.0  0.9603977344341064  0.56227799903859  0.655664644013625  1.0000
