data_image0
_chemical_formula_structural       H80C84N24O32
_chemical_formula_sum              "H80 C84 N24 O32"
_cell_length_a       7.20692175672685
_cell_length_b       37.20875576122285
_cell_length_c       8.254783632400363
_cell_angle_alpha    90.0
_cell_angle_beta     111.94361239336206
_cell_angle_gamma    90.0

_space_group_name_H-M_alt    "P 1"
_space_group_IT_number       1

loop_
  _space_group_symop_operation_xyz
  'x, y, z'

loop_
  _atom_site_type_symbol
  _atom_site_label
  _atom_site_symmetry_multiplicity
  _atom_site_fract_x
  _atom_site_fract_y
  _atom_site_fract_z
  _atom_site_occupancy
  H   H1        1.0  0.9751969712887588  0.24610533952718902  0.6322152851937868  1.0000
  H   H2        1.0  0.024803027526749948  0.7461053395107569  0.8677847145431601  1.0000
  H   H3        1.0  0.024803027729364262  0.7538946604399465  0.36778471472927654  1.0000
  H   H4        1.0  0.9751969714913732  0.2538946604563787  0.1322152853799031  1.0000
  H   H5        1.0  0.21281170673045258  0.1682101911755596  0.930096823246382  1.0000
  H   H6        1.0  0.7871882935809243  0.6682101911591274  0.5699031769898054  1.0000
  H   H7        1.0  0.7871882937835387  0.8317898087915758  0.06990317717592172  1.0000
  H   H8        1.0  0.21281170694690063  0.3317898088080081  0.43009682222564477  1.0000
  H   H9        1.0  0.14310987098579675  0.3880982369490932  0.830750631640483  1.0000
  H   H10       1.0  0.8568901293255801  0.8880982369326609  0.6692493685957043  1.0000
  H   H11       1.0  0.8568901295281944  0.6119017630180423  0.1692493687818207  1.0000
  H   H12       1.0  0.14310987118841106  0.11190176303447458  0.33075063182659936  1.0000
  H   H13       1.0  0.6538366644141036  0.342817864748208  0.29056020472473887  1.0000
  H   H14       1.0  0.3461633363025019  0.8428178647317758  0.20943979588368125  1.0000
  H   H15       1.0  0.34616333609988764  0.6571821352189275  0.7094397956975648  1.0000
  H   H16       1.0  0.6538366642114893  0.15718213523535973  0.7905602045386225  1.0000
  H   H17       1.0  0.1922521134304156  0.2942306536734407  0.8469443676057161  1.0000
  H   H18       1.0  0.8077478868809613  0.7942306536570084  0.6530556326304713  1.0000
  H   H19       1.0  0.8077478870835755  0.7057693462936948  0.1530556328165877  1.0000
  H   H20       1.0  0.1922521136468636  0.20576934631012705  0.3469443665849788  1.0000
  H   H21       1.0  0.5900704469143896  0.22777203984961925  0.2566206173897444  1.0000
  H   H22       1.0  0.4099295538022159  0.7277720398331871  0.24337938321867567  1.0000
  H   H23       1.0  0.40992955359960154  0.7722279603862702  0.7433793830325592  1.0000
  H   H24       1.0  0.5900704467117752  0.2722279604027025  0.756620617203628  1.0000
  H   H25       1.0  0.936600142187731  0.432312383494528  0.6882411428954263  1.0000
  H   H26       1.0  0.06339985812364585  0.9323123834780956  0.8117588573407611  1.0000
  H   H27       1.0  0.06339985832626016  0.5676876164726075  0.31175885752687754  1.0000
  H   H28       1.0  0.9366001423903454  0.06768761648903973  0.1882411430815426  1.0000
  H   H29       1.0  0.12157755885035793  0.4479149248352149  0.856017868095692  1.0000
  H   H30       1.0  0.8784224414748526  0.9479149248187827  0.6439821309336416  1.0000
  H   H31       1.0  0.878422441677467  0.5520850751319206  0.14398213111975808  1.0000
  H   H32       1.0  0.12157755755710407  0.05208507514835288  0.35601786778256794  1.0000
  H   H33       1.0  0.7605444104063298  0.3437598543225148  0.6402672955093205  1.0000
  H   H34       1.0  0.23945558991888075  0.8437598543060826  0.8597327035200132  1.0000
  H   H35       1.0  0.23945559012149506  0.6562401456446206  0.3597327037061296  1.0000
  H   H36       1.0  0.7605444106089442  0.15624014566105293  0.14026729569543694  1.0000
  H   H37       1.0  0.5498408055324222  0.3382816434597794  0.6390462425791276  1.0000
  H   H38       1.0  0.45015919477895455  0.8382816434433471  0.8609537576570597  1.0000
  H   H39       1.0  0.45015919348570077  0.6617183565073561  0.36095375734393564  1.0000
  H   H40       1.0  0.5498408057350366  0.16171835652378835  0.13904624276524397  1.0000
  H   H41       1.0  0.5169758306686294  0.08766572553332802  0.3903169342636073  1.0000
  H   H42       1.0  0.4830241685659416  0.5876657255168958  0.10968306463871867  1.0000
  H   H43       1.0  0.4830241698591955  0.9123342744338075  0.6096830649518428  1.0000
  H   H44       1.0  0.5169758304521813  0.41233427445023974  0.8903169352843445  1.0000
  H   H45       1.0  0.6495492501562161  0.08701192108589867  0.2606669296693591  1.0000
  H   H46       1.0  0.3504507490645211  0.5870119210694664  0.23933307043982052  1.0000
  H   H47       1.0  0.3504507488619068  0.9129880788812369  0.7393330702537042  1.0000
  H   H48       1.0  0.6495492499536019  0.41298807889766903  0.7606669294832429  1.0000
  H   H49       1.0  0.007174100121569096  0.17385036606737123  0.6265579320484282  1.0000
  H   H50       1.0  0.9928259001898078  0.673850366050939  0.8734420681877592  1.0000
  H   H51       1.0  0.992825900392422  0.8261496338997643  0.37344206837387556  1.0000
  H   H52       1.0  0.007174100324183415  0.3261496339161965  0.12655793223454453  1.0000
  H   H53       1.0  0.8294949379764303  0.12160933837824439  0.446775612871203  1.0000
  H   H54       1.0  0.17050506124430706  0.6216093383618122  0.0532243872379767  1.0000
  H   H55       1.0  0.17050506253756093  0.8783906615888911  0.5532243875511008  1.0000
  H   H56       1.0  0.829494937773816  0.37839066160532336  0.9467756126850866  1.0000
  H   H57       1.0  0.06266383006599122  0.05715419923329651  0.919701361593672  1.0000
  H   H58       1.0  0.9373361702453855  0.5571541992168643  0.5802986386425154  1.0000
  H   H59       1.0  0.9373361704479999  0.9428458007338391  0.08029863882863181  1.0000
  H   H60       1.0  0.06266383026860554  0.44284580075027125  0.4197013617797883  1.0000
  H   H61       1.0  0.23339397027994832  0.1128221203347767  0.07652865905187414  1.0000
  H   H62       1.0  0.7666060304504909  0.6128221203183444  0.42347134034969236  1.0000
  H   H63       1.0  0.7666060302478765  0.8871778796323588  0.923471340163576  1.0000
  H   H64       1.0  0.23339397007733406  0.3871778796487911  0.5765286588657577  1.0000
  H   H65       1.0  0.3381373756590471  0.034268759433467674  0.13522761224020077  1.0000
  H   H66       1.0  0.6618626235616902  0.5342687594170354  0.36477238786897886  1.0000
  H   H67       1.0  0.661862624854944  0.9657312405336678  0.8647723881821029  1.0000
  H   H68       1.0  0.33813737545643285  0.46573124055010007  0.6352276120540845  1.0000
  H   H69       1.0  0.1096200184694921  0.9967214278272111  0.8904957848320557  1.0000
  H   H70       1.0  0.8903799803598503  0.49672142784364326  0.6095042136980375  1.0000
  H   H71       1.0  0.8903799805624646  0.003278572139924488  0.10950421388415398  1.0000
  H   H72       1.0  0.10962001867210641  0.5032785721234923  0.39049578501817206  1.0000
  H   H73       1.0  0.4330339150766233  0.9042792321764591  0.09364558130403054  1.0000
  H   H74       1.0  0.5669660856538159  0.40427923219289147  0.4063544180975359  1.0000
  H   H75       1.0  0.5669660854512015  0.09572076779067627  0.9063544179114196  1.0000
  H   H76       1.0  0.4330339148601753  0.595720767774244  0.5936455823247679  1.0000
  H   H77       1.0  0.6746385444037684  0.9378920959880306  0.34442427600969966  1.0000
  H   H78       1.0  0.325361456312837  0.43789209600446277  0.15557572459872046  1.0000
  H   H79       1.0  0.32536145611022277  0.06210790397910504  0.655575724412604  1.0000
  H   H80       1.0  0.674638544201154  0.5621079039626729  0.8444242758235833  1.0000
  C   C1        1.0  0.8099348723476527  0.28173512673393086  0.4665780888649054  1.0000
  C   C2        1.0  0.19006512687308447  0.7817351267174987  0.03342191124427423  1.0000
  C   C3        1.0  0.19006512667047018  0.7182648732332045  0.5334219110581578  1.0000
  C   C4        1.0  0.8099348721450385  0.21826487324963684  0.9665780886787889  1.0000
  C   C5        1.0  0.6420182220981395  0.28486210095329606  0.2932231009605004  1.0000
  C   C6        1.0  0.3579817771225979  0.7848621009368638  0.20677689914867922  1.0000
  C   C7        1.0  0.35798177841585177  0.7151378990138394  0.7067768994618033  1.0000
  C   C8        1.0  0.6420182218955252  0.21513789903027167  0.7932231007743841  1.0000
  C   C9        1.0  0.579259508769735  0.31880830351125256  0.22101888289482222  1.0000
  C   C10       1.0  0.42074049194687047  0.8188083034948203  0.27898111771359785  1.0000
  C   C11       1.0  0.4207404917442562  0.681191696455883  0.7789811175274816  1.0000
  C   C12       1.0  0.5792595085671207  0.1811916964723152  0.7210188827087058  1.0000
  C   C13       1.0  0.418659369256342  0.32230380792517727  0.06042836840743134  1.0000
  C   C14       1.0  0.5813406314602636  0.8223038079087449  0.43957163220098877  1.0000
  C   C15       1.0  0.5813406312576492  0.6776961920419582  0.9395716320148724  1.0000
  C   C16       1.0  0.41865936905372764  0.17769619205839052  0.5604283682213149  1.0000
  C   C17       1.0  0.35850042059392423  0.35904088289677727  0.9898433489367031  1.0000
  C   C18       1.0  0.6414995797174525  0.8590408828803451  0.5101566512994843  1.0000
  C   C19       1.0  0.6414995799200669  0.6409591170703581  0.010156651485600693  1.0000
  C   C20       1.0  0.3585004207965386  0.14095911708679046  0.48984334912281935  1.0000
  C   C21       1.0  0.3185207019477772  0.29167637664762713  0.9711555179684916  1.0000
  C   C22       1.0  0.6814792983635996  0.7916763766311948  0.5288444822676956  1.0000
  C   C23       1.0  0.6814792985800476  0.7083236233195085  0.028844481246958462  1.0000
  C   C24       1.0  0.3185207021503915  0.20832362333594065  0.471155518154608  1.0000
  C   C25       1.0  0.38224056950653323  0.2577053474062435  0.04254775416899625  1.0000
  C   C26       1.0  0.617759431223906  0.7577053473898113  0.4574522452325702  1.0000
  C   C27       1.0  0.6177594310212917  0.7422946525608919  0.9574522450464539  1.0000
  C   C28       1.0  0.38224056930391886  0.2422946525773242  0.5425477539828799  1.0000
  C   C29       1.0  0.2769844745628428  0.224597503169113  0.9506793148809107  1.0000
  C   C30       1.0  0.723015525748534  0.7245975034214347  0.5493206853552768  1.0000
  C   C31       1.0  0.7230155259511483  0.7754024967980225  0.0493206855413931  1.0000
  C   C32       1.0  0.2769844747654572  0.2754024968144548  0.450679315067027  1.0000
  C   C33       1.0  0.5431660413963538  0.2543868228419612  0.2022948347751791  1.0000
  C   C34       1.0  0.4568339578243835  0.7543868228255289  0.29770516533400054  1.0000
  C   C35       1.0  0.45683395911763736  0.7456131771251743  0.7977051656471247  1.0000
  C   C36       1.0  0.5431660411937395  0.24561317714160655  0.7022948345890627  1.0000
  C   C37       1.0  0.012724449972058452  0.14714759840762978  0.6822011227431942  1.0000
  C   C38       1.0  0.9872755503393185  0.6471475983911975  0.8177988774929932  1.0000
  C   C39       1.0  0.9872755505419328  0.8528524015595057  0.3177988776791096  1.0000
  C   C40       1.0  0.012724448678804597  0.352852401575938  0.1822011224300701  1.0000
  C   C41       1.0  0.9144612994633253  0.11761078059376046  0.5854050012077826  1.0000
  C   C42       1.0  0.08553869936601705  0.6176107805773282  0.9145949973223108  1.0000
  C   C43       1.0  0.08553869956863136  0.882389219373375  0.41459499750842704  1.0000
  C   C44       1.0  0.9144612996659397  0.38238921938980736  0.08540500139389895  1.0000
  C   C45       1.0  0.9325813281182677  0.08427757165876652  0.6698457599059311  1.0000
  C   C46       1.0  0.06741867069724095  0.5842775716423343  0.8301542398310157  1.0000
  C   C47       1.0  0.06741867089985526  0.9157224283083689  0.33015424001713206  1.0000
  C   C48       1.0  0.932581328320882  0.4157224283248013  0.16984576009204758  1.0000
  C   C49       1.0  0.04826256790189603  0.08233648498380519  0.8499223611150026  1.0000
  C   C50       1.0  0.9517374309136126  0.582336484967373  0.6500776386219443  1.0000
  C   C51       1.0  0.951737431116227  0.9176635152520842  0.15007763880806066  1.0000
  C   C52       1.0  0.048262568104510344  0.41766351499976256  0.349922361301119  1.0000
  C   C53       1.0  0.14225924590888162  0.11275745329738796  0.9377140602890415  1.0000
  C   C54       1.0  0.8577407544024953  0.6127574532809558  0.5622859399471458  1.0000
  C   C55       1.0  0.8577407546051096  0.8872425466697477  0.06228594013326225  1.0000
  C   C56       1.0  0.14225924612532964  0.3872425466861798  0.4377140592683042  1.0000
  C   C57       1.0  0.8457354239916908  0.05074564686110175  0.5845694667622621  1.0000
  C   C58       1.0  0.15426457631968615  0.5507456468446695  0.9154305334739254  1.0000
  C   C59       1.0  0.15426457652230047  0.9492543531060337  0.41543053366004173  1.0000
  C   C60       1.0  0.8457354241943051  0.44925435312246603  0.08456946694837841  1.0000
  C   C61       1.0  0.6681184301081016  0.008919941374279705  0.4055365635873754  1.0000
  C   C62       1.0  0.3318815691126358  0.5089199413578475  0.09446343652180422  1.0000
  C   C63       1.0  0.3318815689100215  0.9910800585928558  0.5944634363356879  1.0000
  C   C64       1.0  0.6681184314013553  0.49108005860928805  0.9055365639004994  1.0000
  C   C65       1.0  0.5264958321120214  0.9892735206255193  0.25880740578460365  1.0000
  C   C66       1.0  0.473504168604584  0.4892735206419515  0.24119259482381641  1.0000
  C   C67       1.0  0.4735041684019697  0.01072647934161621  0.7411925946377002  1.0000
  C   C68       1.0  0.5264958319094073  0.5107264793251839  0.7588074055984875  1.0000
  C   C69       1.0  0.36307024493345613  0.005624633657277712  0.12944601480733825  1.0000
  C   C70       1.0  0.6369297543011149  0.5056246336408454  0.3705539840949877  1.0000
  C   C71       1.0  0.6369297540985005  0.9943753663098578  0.8705539839088714  1.0000
  C   C72       1.0  0.36307024473084176  0.49437536632629  0.629446014621222  1.0000
  C   C73       1.0  0.23603549850076924  0.9845724515781556  0.9951501193124523  1.0000
  C   C74       1.0  0.7639645018106076  0.48457245159458784  0.504849880923735  1.0000
  C   C75       1.0  0.763964502013222  0.015427548388979896  0.0048498811098513575  1.0000
  C   C76       1.0  0.23603549870338356  0.5154275483725476  0.49515011949856874  1.0000
  C   C77       1.0  0.41693540112377075  0.9331609047294541  0.10715940906326343  1.0000
  C   C78       1.0  0.5830645980969665  0.43316090447713235  0.39284059104591623  1.0000
  C   C79       1.0  0.5830645993902204  0.06683909550643534  0.8928405913590403  1.0000
  C   C80       1.0  0.4169354009211565  0.5668390954900031  0.607159408877147  1.0000
  C   C81       1.0  0.552366662074696  0.9520920236445912  0.24634818178054943  1.0000
  C   C82       1.0  0.4476333386557432  0.4520920236610234  0.253651817621017  1.0000
  C   C83       1.0  0.44763333845312886  0.04790797632254436  0.7536518174349006  1.0000
  C   C84       1.0  0.552366661858248  0.5479079763061121  0.7463481828012867  1.0000
  N   N1        1.0  0.12368250304457075  0.1441978445726901  0.8531660894186802  1.0000
  N   N2        1.0  0.8763174972668062  0.6441978445562578  0.6468339108175073  1.0000
  N   N3        1.0  0.8763174974694204  0.8558021553944454  0.14683391100362356  1.0000
  N   N4        1.0  0.12368250324718508  0.3558021554108776  0.3531660896047965  1.0000
  N   N5        1.0  0.9098325919933885  0.018870553869252096  0.6568451033976394  1.0000
  N   N6        1.0  0.09016740831798838  0.5188705538528199  0.843154896838548  1.0000
  N   N7        1.0  0.09016740852060269  0.9811294460978833  0.34315489702466434  1.0000
  N   N8        1.0  0.9098325921960029  0.4811294461143157  0.15684510358375578  1.0000
  N   N9        1.0  0.8008849422462287  0.993002798779577  0.5464067329007242  1.0000
  N   N10       1.0  0.1991150580651482  0.49300279879600933  0.9535932673354631  1.0000
  N   N11       1.0  0.1991150582677625  0.006997201187558427  0.4535932675215796  1.0000
  N   N12       1.0  0.8008849409529748  0.5069972011711261  0.04640673258760007  1.0000
  N   N13       1.0  0.6924805134028971  0.04558800275089481  0.4252709124984728  1.0000
  N   N14       1.0  0.30751948581784033  0.5455880027344625  0.07472908761070686  1.0000
  N   N15       1.0  0.3075194871110941  0.9544119972162407  0.574729087923831  1.0000
  N   N16       1.0  0.6924805132002828  0.45441199723267295  0.9252709123123565  1.0000
  N   N17       1.0  0.5688546348706603  0.07156522962197774  0.3139219919222782  1.0000
  N   N18       1.0  0.431145364350077  0.5715652296055456  0.1860780081869014  1.0000
  N   N19       1.0  0.43114536414746263  0.9284347706139117  0.686078008000785  1.0000
  N   N20       1.0  0.5688546361639143  0.42843477036159  0.8139219922354023  1.0000
  N   N21       1.0  0.2608462952823621  0.9490157998456946  0.98236210458292  1.0000
  N   N22       1.0  0.7391537050290148  0.4490157998621269  0.5176378956532676  1.0000
  N   N23       1.0  0.7391537052316292  0.05098420012144083  0.017637895839383924  1.0000
  N   N24       1.0  0.26084629398910825  0.5509842001050086  0.48236210426979576  1.0000
  O   O1        1.0  0.8883912786865693  0.3079765674922797  0.5587198164504553  1.0000
  O   O2        1.0  0.11160872162480753  0.8079765674758475  0.941280183785732  1.0000
  O   O3        1.0  0.11160872182742185  0.6920234324748558  0.4412801839718484  1.0000
  O   O4        1.0  0.8883912788891837  0.19202343249128803  0.058719816636571734  1.0000
  O   O5        1.0  0.8647172051503454  0.24789717315978477  0.5125836549027595  1.0000
  O   O6        1.0  0.1352827951610314  0.7478971731433526  0.9874163453334278  1.0000
  O   O7        1.0  0.13528279386777753  0.7521028268073507  0.48741634502030373  1.0000
  O   O8        1.0  0.8647172053529598  0.252102826823783  0.012583655088875961  1.0000
  O   O9        1.0  0.33869605792188806  0.1944925755228254  0.030754518995727162  1.0000
  O   O10       1.0  0.6613039412988493  0.6944925755063931  0.4692454811134525  1.0000
  O   O11       1.0  0.6613039410962349  0.8055074244443101  0.9692454809273361  1.0000
  O   O12       1.0  0.3386960577192738  0.3055074244607423  0.5307545188096108  1.0000
  O   O13       1.0  0.13522910983728198  0.22662876673742524  0.8044862549651447  1.0000
  O   O14       1.0  0.8647708889782268  0.726628766720993  0.6955137447718023  1.0000
  O   O15       1.0  0.864770889180841  0.7733712332297102  0.19551374495791862  1.0000
  O   O16       1.0  0.1352291100398963  0.27337123324614254  0.3044862551512611  1.0000
  O   O17       1.0  0.1855454848850795  0.3612540469307604  0.855588075195889  1.0000
  O   O18       1.0  0.8144545154262974  0.861254046914328  0.6444119250402984  1.0000
  O   O19       1.0  0.8144545156289118  0.638745953036375  0.1444119252264148  1.0000
  O   O20       1.0  0.18554548359182566  0.13874595305280735  0.35558807488276484  1.0000
  O   O21       1.0  0.4641708138431523  0.3857551086123252  0.054450097535186856  1.0000
  O   O22       1.0  0.5358291853914188  0.8857551085958929  0.4455499013671392  1.0000
  O   O23       1.0  0.5358291851888044  0.6142448913548103  0.9455499011810229  1.0000
  O   O24       1.0  0.46417081364053797  0.11424489137124257  0.5544500973490705  1.0000
  O   O25       1.0  0.060564461105446235  0.4255651296596755  0.7923153655658497  1.0000
  O   O26       1.0  0.9394355392059307  0.9255651296432433  0.7076846346703377  1.0000
  O   O27       1.0  0.9394355394085449  0.57443487030746  0.207684634856454  1.0000
  O   O28       1.0  0.06056445981219238  0.07443487032389222  0.2923153652527256  1.0000
  O   O29       1.0  0.6569401951310487  0.356414517730817  0.6695192305470915  1.0000
  O   O30       1.0  0.3430598051803281  0.8564145177143848  0.8304807696890959  1.0000
  O   O31       1.0  0.34305980388707424  0.6435854822363184  0.33048076937597176  1.0000
  O   O32       1.0  0.6569401953474968  0.14358548225275072  0.1695192295263542  1.0000
