data_image0
_chemical_formula_structural       H68C44N12S4
_chemical_formula_sum              "H68 C44 N12 S4"
_cell_length_a       7.1749762337502405
_cell_length_b       17.58063466228662
_cell_length_c       9.544942637376128
_cell_angle_alpha    90.0
_cell_angle_beta     111.51538629572484
_cell_angle_gamma    90.0

_space_group_name_H-M_alt    "P 1"
_space_group_IT_number       1

loop_
  _space_group_symop_operation_xyz
  'x, y, z'

loop_
  _atom_site_type_symbol
  _atom_site_label
  _atom_site_symmetry_multiplicity
  _atom_site_fract_x
  _atom_site_fract_y
  _atom_site_fract_z
  _atom_site_occupancy
  H   H1        1.0  0.3488178718309735  0.2663123055530832  0.15137156779540611  1.0000
  H   H2        1.0  0.651182127900598  0.7663123054880508  0.3486284320811003  1.0000
  H   H3        1.0  0.6511821282389504  0.7336876943168521  0.8486284321193767  1.0000
  H   H4        1.0  0.34881787216932575  0.23368769438188447  0.6513715678336826  1.0000
  H   H5        1.0  0.37358590082543497  0.2786557922456037  0.9037934956454797  1.0000
  H   H6        1.0  0.6264140980847301  0.7786557921805713  0.596206503898852  1.0000
  H   H7        1.0  0.6264140992444888  0.7213442076243316  0.09620650426930298  1.0000
  H   H8        1.0  0.3735859019851935  0.22134420768936391  0.40379349601593073  1.0000
  H   H9        1.0  0.521510448429075  0.512794745080462  0.38441634456788737  1.0000
  H   H10       1.0  0.4784895513024964  0.01279474514549427  0.11558365530861904  1.0000
  H   H11       1.0  0.47848955014273786  0.4872052553582811  0.6155836549381681  1.0000
  H   H12       1.0  0.5215104487674274  0.9872052552932487  0.8844163446061638  1.0000
  H   H13       1.0  0.593027546676788  0.6375052741436279  0.30026989981009045  1.0000
  H   H14       1.0  0.4069724530547834  0.13750527420866032  0.1997301000664159  1.0000
  H   H15       1.0  0.40697245339313576  0.36249472629511503  0.6997301001046923  1.0000
  H   H16       1.0  0.5930275470151404  0.8624947262300826  0.8002698998483669  1.0000
  H   H17       1.0  0.8134108497921433  0.32529315521628493  0.18127677510908355  1.0000
  H   H18       1.0  0.1865891499394282  0.8252931551512526  0.3187232247674228  1.0000
  H   H19       1.0  0.18658915027778056  0.674706845222458  0.8187232248056993  1.0000
  H   H20       1.0  0.8134108501304955  0.17470684471868275  0.68127677514736  1.0000
  H   H21       1.0  0.05463942555512961  0.30965699786016326  0.27746107016450877  1.0000
  H   H22       1.0  0.9453605741764419  0.8096569983639387  0.22253892971199765  1.0000
  H   H23       1.0  0.945360574514794  0.690343002009772  0.7225389297502741  1.0000
  H   H24       1.0  0.05463942440149768  0.19034300207480437  0.7774610708434133  1.0000
  H   H25       1.0  0.672852518093445  0.3586969851280555  0.5539911929534082  1.0000
  H   H26       1.0  0.3271474823148312  0.8586969856318308  0.9460088069996512  1.0000
  H   H27       1.0  0.3271474819764788  0.6413030147418799  0.4460088069613748  1.0000
  H   H28       1.0  0.6728525177550926  0.1413030148069122  0.05399119291513166  1.0000
  H   H29       1.0  0.8674429859715362  0.3018855582833494  0.6642398370912136  1.0000
  H   H30       1.0  0.1325570144428665  0.8018855582183171  0.8357601639112011  1.0000
  H   H31       1.0  0.13255701409838755  0.6981144421553935  0.33576016282356924  1.0000
  H   H32       1.0  0.8674429856331839  0.19811444165161826  0.16423983705293713  1.0000
  H   H33       1.0  0.8838371945812695  0.4024756310520869  0.6816736718385933  1.0000
  H   H34       1.0  0.11616280582700668  0.9024756309870545  0.818326328114466  1.0000
  H   H35       1.0  0.11616280548865435  0.5975243688178484  0.3183263280761896  1.0000
  H   H36       1.0  0.8838371942429171  0.09752436888288074  0.18167367180031685  1.0000
  H   H37       1.0  0.07083257195646261  0.3711796931881214  0.5303067860378122  1.0000
  H   H38       1.0  0.9291674284518135  0.8711796931230891  0.969693213915247  1.0000
  H   H39       1.0  0.9291674281134611  0.6288203072506215  0.4696932138769706  1.0000
  H   H40       1.0  0.07083257161811028  0.12882030674684625  0.030306785999535794  1.0000
  H   H41       1.0  0.8347831499599984  0.4052936112303722  0.4066102327010956  1.0000
  H   H42       1.0  0.16521684977157308  0.9052936111653399  0.09338976717541084  1.0000
  H   H43       1.0  0.16521685010992537  0.594706388639563  0.5933897672136873  1.0000
  H   H44       1.0  0.8347831502983508  0.09470638870459541  0.906610232739372  1.0000
  H   H45       1.0  0.964941328911245  0.23821581532456979  0.4637246777483803  1.0000
  H   H46       1.0  0.035058672318437414  0.7382158152595375  0.036275322536853456  1.0000
  H   H47       1.0  0.03505867115867887  0.7617841845453655  0.5362753221664026  1.0000
  H   H48       1.0  0.9649413277514862  0.2617841846103978  0.9637246773779293  1.0000
  H   H49       1.0  0.7139571404291586  0.26679620958518563  0.3649631991117458  1.0000
  H   H50       1.0  0.2860428593024128  0.7667962095201533  0.13503680076476063  1.0000
  H   H51       1.0  0.28604285964076515  0.7332037902847497  0.635036800803037  1.0000
  H   H52       1.0  0.713957140767511  0.23320379034978203  0.8649631991500222  1.0000
  H   H53       1.0  0.8718525157830772  0.5228331278459364  0.7451113527372839  1.0000
  H   H54       1.0  0.12814748462519898  0.022833127910968677  0.7548886472157753  1.0000
  H   H55       1.0  0.12814748428684666  0.47716687259280666  0.25488864717749893  1.0000
  H   H56       1.0  0.8718525154447248  0.9771668725277742  0.24511135269900747  1.0000
  H   H57       1.0  0.1067833340955444  0.4934606165618166  0.7986766962103784  1.0000
  H   H58       1.0  0.8932166663127317  0.9934606164967842  0.7013233037426808  1.0000
  H   H59       1.0  0.8932166659743793  0.5065393833081187  0.20132330370440454  1.0000
  H   H60       1.0  0.10678333375719208  0.0065393833731510415  0.29867669617210185  1.0000
  H   H61       1.0  0.08477537703511061  0.41993869571940473  0.00018317509742537232  1.0000
  H   H62       1.0  0.9152246226964609  0.9199386956543724  0.49981682477908107  1.0000
  H   H63       1.0  0.9152246215367023  0.5800613041505306  0.9998168244086302  1.0000
  H   H64       1.0  0.08477537737346294  0.08006130421556296  0.5001831751357018  1.0000
  H   H65       1.0  0.8273035513291057  0.4426619902803782  0.9417824299655924  1.0000
  H   H66       1.0  0.17269644908529702  0.9426619902153458  0.5582175710368225  1.0000
  H   H67       1.0  0.1726964487469447  0.5573380101583648  0.058217570998546055  1.0000
  H   H68       1.0  0.8273035509846267  0.057338009654589434  0.4417824288779604  1.0000
  C   C1        1.0  0.4176579913513023  0.38336189389441516  0.217542100707808  1.0000
  C   C2        1.0  0.5823420083802691  0.8833618938293828  0.2824578991686984  1.0000
  C   C3        1.0  0.5823420087186214  0.6166381059755203  0.7824578992069748  1.0000
  C   C4        1.0  0.4176579901915438  0.11663810604055251  0.7175421003373572  1.0000
  C   C5        1.0  0.388099718260301  0.3214250974751228  0.11727760263648321  1.0000
  C   C6        1.0  0.6119002814712704  0.8214250974100905  0.3827223972400232  1.0000
  C   C7        1.0  0.6119002818096227  0.6785749023948124  0.8827223972782996  1.0000
  C   C8        1.0  0.3880997171005425  0.1785749024598448  0.6172776022660323  1.0000
  C   C9        1.0  0.40006960152162313  0.32887640924608036  0.9761015870799299  1.0000
  C   C10       1.0  0.599930398886653  0.828876409181048  0.5238984128731294  1.0000
  C   C11       1.0  0.5999303985483007  0.671123590623855  0.023898412834853028  1.0000
  C   C12       1.0  0.4000696011832708  0.1711235906888873  0.47610158704165334  1.0000
  C   C13       1.0  0.44070678181538936  0.39979946827959456  0.924944865349315  1.0000
  C   C14       1.0  0.5592932185928867  0.8997994682145622  0.5750551346037442  1.0000
  C   C15       1.0  0.5592932182545344  0.6002005315903407  0.07505513456546789  1.0000
  C   C16       1.0  0.4407067814770371  0.1002005316553731  0.42494486531103853  1.0000
  C   C17       1.0  0.48026785507531966  0.463495206886926  0.025087571013504777  1.0000
  C   C18       1.0  0.5197321461543626  0.9634952068218937  0.47491242927172894  1.0000
  C   C19       1.0  0.5197321449946041  0.5365047929830092  0.9749124289012782  1.0000
  C   C20       1.0  0.48026785391556115  0.03650479304804161  0.5250875706430539  1.0000
  C   C21       1.0  0.47580469744469883  0.45475319882224047  0.17327315741553792  1.0000
  C   C22       1.0  0.5241953022868726  0.9547531987572081  0.3267268424609685  1.0000
  C   C23       1.0  0.524195302625225  0.5452468010476949  0.826726842499245  1.0000
  C   C24       1.0  0.4758046977830512  0.045246801112727164  0.6732731574538143  1.0000
  C   C25       1.0  0.5216316263280559  0.5194197869084372  0.2709344748262112  1.0000
  C   C26       1.0  0.4783683734035155  0.019419786973469497  0.22906552505029526  1.0000
  C   C27       1.0  0.47836837374186786  0.48058021296149817  0.7290655250885717  1.0000
  C   C28       1.0  0.5216316266664083  0.9805802128964657  0.7709344748644876  1.0000
  C   C29       1.0  0.5608293460414938  0.589011600486393  0.22351869796081864  1.0000
  C   C30       1.0  0.43917065518818854  0.0890115999826177  0.2764813023244151  1.0000
  C   C31       1.0  0.43917065402843003  0.4109883999523499  0.7764813019539641  1.0000
  C   C32       1.0  0.5608293448817352  0.9109883998873176  0.7235186975903678  1.0000
  C   C33       1.0  0.9099226557490793  0.35820641182591517  0.4818582075502548  1.0000
  C   C34       1.0  0.09007734548060302  0.8582064117608829  0.018141792734978932  1.0000
  C   C35       1.0  0.09007734432084448  0.6417935880440201  0.5181417923645281  1.0000
  C   C36       1.0  0.9099226545893208  0.1417935881090525  0.9818582071798039  1.0000
  C   C37       1.0  0.8713215482005789  0.2835979062061642  0.39308035540711467  1.0000
  C   C38       1.0  0.12867845153099253  0.7835979061411319  0.10691964446939177  1.0000
  C   C39       1.0  0.12867845186934487  0.7164020936637711  0.6069196445076682  1.0000
  C   C40       1.0  0.8713215485389312  0.21640209372880345  0.893080355445391  1.0000
  C   C41       1.0  0.9740202104440239  0.46481033631451135  0.9493185116059912  1.0000
  C   C42       1.0  0.025979788466141403  0.9648103362494791  0.5506814879383408  1.0000
  C   C43       1.0  0.02597978962589995  0.535189663555424  0.05068148830879166  1.0000
  C   C44       1.0  0.9740202116037824  0.03518966362045627  0.4493185119764422  1.0000
  N   N1        1.0  0.911998418529286  0.28794167202958  0.2535064915356067  1.0000
  N   N2        1.0  0.08800158120228545  0.7879416725333553  0.24649350834089973  1.0000
  N   N3        1.0  0.0880015815406378  0.7120583278403553  0.746493508379176  1.0000
  N   N4        1.0  0.9119984188676383  0.21205832790538764  0.7535064915738832  1.0000
  N   N5        1.0  0.8294857130672046  0.3548418717432475  0.6047065054617665  1.0000
  N   N6        1.0  0.1705142873410715  0.8548418716782151  0.8952934944912927  1.0000
  N   N7        1.0  0.17051428700271914  0.6451581286954955  0.39529349445301626  1.0000
  N   N8        1.0  0.8294857127288522  0.14515812819172016  0.1047065054234901  1.0000
  N   N9        1.0  0.9674649487052909  0.4785989642370298  0.7956195707660138  1.0000
  N   N10       1.0  0.03253505170298516  0.9785989641719975  0.7043804291870455  1.0000
  N   N11       1.0  0.032535051364632826  0.5214010362017132  0.20438042914876903  1.0000
  N   N12       1.0  0.9674649483669387  0.02140103569793788  0.2956195707277374  1.0000
  S   S1        1.0  0.3675144931602583  0.37381894034223784  0.38211340343916916  1.0000
  S   S2        1.0  0.6324855065713131  0.8738189402772054  0.11788659643733723  1.0000
  S   S3        1.0  0.6324855069096655  0.6261810600965052  0.6178865964756137  1.0000
  S   S4        1.0  0.3675144934986106  0.12618106016153754  0.8821134034774456  1.0000
