data_image0
_chemical_formula_structural       H80C48N56O24
_chemical_formula_sum              "H80 C48 N56 O24"
_cell_length_a       17.06365068948544
_cell_length_b       3.783224571261474
_cell_length_c       29.55538183834591
_cell_angle_alpha    90.0
_cell_angle_beta     90.66573911465132
_cell_angle_gamma    90.0

_space_group_name_H-M_alt    "P 1"
_space_group_IT_number       1

loop_
  _space_group_symop_operation_xyz
  'x, y, z'

loop_
  _atom_site_type_symbol
  _atom_site_label
  _atom_site_symmetry_multiplicity
  _atom_site_fract_x
  _atom_site_fract_y
  _atom_site_fract_z
  _atom_site_occupancy
  H   H1        1.0  0.41956969177821934  0.2490460537704308  0.20513694709627048  1.0000
  H   H2        1.0  0.080430308013742  0.2490460537704308  0.7948630529306616  1.0000
  H   H3        1.0  0.9195696922341724  0.7490460549253353  0.7051369470984201  1.0000
  H   H4        1.0  0.5804303080394478  0.7490460549253353  0.2948630528750764  1.0000
  H   H5        1.0  0.5804303079615329  0.7509539458961304  0.7948630529025822  1.0000
  H   H6        1.0  0.9195696917260103  0.7509539458961304  0.20513694706819094  1.0000
  H   H7        1.0  0.08043030809165683  0.2509539473844737  0.29486305290315584  1.0000
  H   H8        1.0  0.4195696922863814  0.2509539473844737  0.7051369471264994  1.0000
  H   H9        1.0  0.3158804954982585  0.3012884243400683  0.21537869480683083  1.0000
  H   H10       1.0  0.18411950487977974  0.3012884243400683  0.7846213052228246  1.0000
  H   H11       1.0  0.8158804953681347  0.801288422851725  0.715378694806257  1.0000
  H   H12       1.0  0.6841195049054856  0.801288422851725  0.28462130516723916  1.0000
  H   H13       1.0  0.6841195048275708  0.6987115779697406  0.784621305194745  1.0000
  H   H14       1.0  0.8158804954460495  0.6987115779697406  0.2153786947787513  1.0000
  H   H15       1.0  0.18411950495769455  0.19871157681483617  0.2846213051953187  1.0000
  H   H16       1.0  0.3158804954203437  0.19871157681483617  0.7153786948343366  1.0000
  H   H17       1.0  0.35303757180332823  0.8842223656008283  0.1973738438897244  1.0000
  H   H18       1.0  0.14696242857470998  0.8842223656008283  0.8026261561399309  1.0000
  H   H19       1.0  0.8530375716732044  0.38422236444592384  0.6973738438891507  1.0000
  H   H20       1.0  0.6469624286025089  0.38422236444592384  0.3026261564227053  1.0000
  H   H21       1.0  0.6469624285225011  0.11577763406573284  0.8026261561118514  1.0000
  H   H22       1.0  0.8530375717511193  0.11577763406573284  0.19737384386164492  1.0000
  H   H23       1.0  0.14696242865262482  0.6157776352206373  0.3026261561124251  1.0000
  H   H24       1.0  0.3530375717233203  0.6157776352206373  0.6973738435788706  1.0000
  H   H25       1.0  0.37408619314310165  0.5702566948809586  0.3925405813916436  1.0000
  H   H26       1.0  0.1259138066488597  0.5702566948809586  0.6074594186352885  1.0000
  H   H27       1.0  0.8740861935990547  0.07025669372605417  0.8925405813937932  1.0000
  H   H28       1.0  0.6259138066745655  0.07025669372605417  0.10745941857970316  1.0000
  H   H29       1.0  0.6259138065966507  0.4297433074288503  0.6074594186072089  1.0000
  H   H30       1.0  0.8740861936769695  0.4297433074288503  0.39254058136628733  1.0000
  H   H31       1.0  0.12591380672677455  0.929743305940507  0.10745941860778267  1.0000
  H   H32       1.0  0.37408619365126367  0.929743305940507  0.8925405814218728  1.0000
  H   H33       1.0  0.3071994058219793  0.3436202809304899  0.48673316962862256  1.0000
  H   H34       1.0  0.1928005945560589  0.3436202809304899  0.5132668304010327  1.0000
  H   H35       1.0  0.8071994056918554  0.8436202820853944  0.9867331696280489  1.0000
  H   H36       1.0  0.6928005945817647  0.8436202820853944  0.013266830345447454  1.0000
  H   H37       1.0  0.6928005945038499  0.6563797187360713  0.5132668303729533  1.0000
  H   H38       1.0  0.8071994057697703  0.6563797187360713  0.486733169600543  1.0000
  H   H39       1.0  0.19280059463397375  0.15637971758116676  0.01326683037352695  1.0000
  H   H40       1.0  0.3071994057440645  0.15637971758116676  0.9867331696561285  1.0000
  H   H41       1.0  0.3298566162498941  0.08557029430903047  0.5359812056353908  1.0000
  H   H42       1.0  0.17014338353997419  0.08557029430903047  0.4640187940531816  1.0000
  H   H43       1.0  0.8298566162776929  0.5855702954639349  0.035981205918165234  1.0000
  H   H44       1.0  0.6701433839959273  0.5855702954639349  0.9640187940553311  1.0000
  H   H45       1.0  0.6701433834898582  0.9144297053575307  0.46401879436346183  1.0000
  H   H46       1.0  0.8298566161997781  0.9144297053575307  0.535981205945671  1.0000
  H   H47       1.0  0.17014338404813625  0.414429706845874  0.9640187940834105  1.0000
  H   H48       1.0  0.329856616329902  0.414429706845874  0.03598120594624473  1.0000
  H   H49       1.0  0.35055635639965743  0.9321973659163609  0.48012475134655563  1.0000
  H   H50       1.0  0.14944364397838078  0.9321973659163609  0.5198752486830996  1.0000
  H   H51       1.0  0.8505563562695336  0.4321973647614565  0.980124751345982  1.0000
  H   H52       1.0  0.6494436440040865  0.4321973647614565  0.019875248627514372  1.0000
  H   H53       1.0  0.6494436439261717  0.06780263375020022  0.5198752486550202  1.0000
  H   H54       1.0  0.8505563563474484  0.06780263375020022  0.48012475131847615  1.0000
  H   H55       1.0  0.1494436434702187  0.5678026349051047  0.019875248652870686  1.0000
  H   H56       1.0  0.35055635632174265  0.5678026349051047  0.9801247513740614  1.0000
  H   H57       1.0  0.38181208994116445  0.28222859359469  0.5907992107015709  1.0000
  H   H58       1.0  0.11818790985079682  0.28222859359469  0.40920078932536125  1.0000
  H   H59       1.0  0.8818120899668702  0.7822285921063468  0.09079921064598556  1.0000
  H   H60       1.0  0.6181879103067499  0.7822285921063468  0.9092007893275107  1.0000
  H   H61       1.0  0.6181879097985878  0.7177714060718712  0.40920078929728176  1.0000
  H   H62       1.0  0.8818120898889554  0.7177714060718712  0.5907992106734914  1.0000
  H   H63       1.0  0.11818790977288199  0.21777140756021446  0.909200789352867  1.0000
  H   H64       1.0  0.38181209001907934  0.21777140756021446  0.09079921067406506  1.0000
  H   H65       1.0  0.44397127663148506  0.6391273170426035  0.6076965152961694  1.0000
  H   H66       1.0  0.05602872374655314  0.6391273170426035  0.39230348473348586  1.0000
  H   H67       1.0  0.9439712760711141  0.13912731588769908  0.10769651523786093  1.0000
  H   H68       1.0  0.5560287236164293  0.13912731588769908  0.8923034847329122  1.0000
  H   H69       1.0  0.5560287236943442  0.3608726826239576  0.3923034847054064  1.0000
  H   H70       1.0  0.943971276579276  0.3608726826239576  0.60769651526809  1.0000
  H   H71       1.0  0.05602872366863831  0.8608726837788621  0.8923034847609916  1.0000
  H   H72       1.0  0.443971276123323  0.8608726837788621  0.10769651526594043  1.0000
  H   H73       1.0  0.4810320149815543  0.20765830449711964  0.6084399751574533  1.0000
  H   H74       1.0  0.018967984810407068  0.20765830449711964  0.3915600248694789  1.0000
  H   H75       1.0  0.9810320150072601  0.707658305652024  0.10843997510186797  1.0000
  H   H76       1.0  0.5189679846802832  0.707658305652024  0.8915600248689052  1.0000
  H   H77       1.0  0.518967984758198  0.7923416951694415  0.39156002484139935  1.0000
  H   H78       1.0  0.9810320149293453  0.7923416951694415  0.6084399751293739  1.0000
  H   H79       1.0  0.018967984732492234  0.2923416966577848  0.8915600248969847  1.0000
  H   H80       1.0  0.4810320150594691  0.2923416966577848  0.10843997512994746  1.0000
  C   C1        1.0  0.36558157986866463  0.845935682568501  0.3294338704864338  1.0000
  C   C2        1.0  0.13441842050937358  0.845935682568501  0.6705661295432215  1.0000
  C   C3        1.0  0.8655815797385408  0.34593568141359665  0.82943387048586  1.0000
  C   C4        1.0  0.6344184205350795  0.34593568141359665  0.17056612948763628  1.0000
  C   C5        1.0  0.6344184204571646  0.15406431709806007  0.670566129515142  1.0000
  C   C6        1.0  0.8655815798164557  0.15406431709806007  0.32943387045835426  1.0000
  C   C7        1.0  0.1344184205872884  0.6540643182529645  0.17056612951571573  1.0000
  C   C8        1.0  0.36558157979074984  0.6540643182529645  0.8294338705139396  1.0000
  C   C9        1.0  0.3662339007816338  0.12171545498459774  0.21724965573522104  1.0000
  C   C10       1.0  0.1337660995964044  0.12171545498459774  0.7827503442944342  1.0000
  C   C11       1.0  0.86623390065151  0.6217154561395022  0.7172496557346474  1.0000
  C   C12       1.0  0.6337660996221103  0.6217154561395022  0.282750344238849  1.0000
  C   C13       1.0  0.6337660995441954  0.8782845446819634  0.7827503442663547  1.0000
  C   C14       1.0  0.8662339007294249  0.8782845446819634  0.21724965570714153  1.0000
  C   C15       1.0  0.13376609967431924  0.3782845435270589  0.2827503442669284  1.0000
  C   C16       1.0  0.36623390070371903  0.3782845435270589  0.7172496557627269  1.0000
  C   C17       1.0  0.42792695255232854  0.3342674261544908  0.5036981363446831  1.0000
  C   C18       1.0  0.07207304723963279  0.3342674261544908  0.49630186368224904  1.0000
  C   C19       1.0  0.9279269525780344  0.8342674273093953  0.00369813628909778  1.0000
  C   C20       1.0  0.5720730471095089  0.8342674273093953  0.9963018636816754  1.0000
  C   C21       1.0  0.5720730471874238  0.6657325735120703  0.49630186365416956  1.0000
  C   C22       1.0  0.9279269525001195  0.6657325735120703  0.5036981363166037  1.0000
  C   C23       1.0  0.07207304716171796  0.16573257235716585  0.9963018637097549  1.0000
  C   C24       1.0  0.42792695263024333  0.16573257235716585  0.003698136317177276  1.0000
  C   C25       1.0  0.4686514618627123  0.43472861814586944  0.5425781998479152  1.0000
  C   C26       1.0  0.03134853792924902  0.43472861814586944  0.45742180017901696  1.0000
  C   C27       1.0  0.9686514618884181  0.9347286166575262  0.042578199792329866  1.0000
  C   C28       1.0  0.5313485377991253  0.9347286166575262  0.9574218001784432  1.0000
  C   C29       1.0  0.5313485378770401  0.5652713841639395  0.4574218001509375  1.0000
  C   C30       1.0  0.9686514618105033  0.5652713841639395  0.5425781998198357  1.0000
  C   C31       1.0  0.03134853785133418  0.06527138300903502  0.9574218002065227  1.0000
  C   C32       1.0  0.4686514619406272  0.06527138300903502  0.04257819982040936  1.0000
  C   C33       1.0  0.3498295018947643  0.1631360677577245  0.5025052563641507  1.0000
  C   C34       1.0  0.15017049848327393  0.1631360677577245  0.4974947436655047  1.0000
  C   C35       1.0  0.84982950192047  0.663136068912629  0.0025052563085652874  1.0000
  C   C36       1.0  0.6501704983531501  0.663136068912629  0.997494743664931  1.0000
  C   C37       1.0  0.6501704984310649  0.8368639319088367  0.49749474363742524  1.0000
  C   C38       1.0  0.8498295018425552  0.8368639319088367  0.5025052563360711  1.0000
  C   C39       1.0  0.15017049840535912  0.3368639307539322  0.9974947436930105  1.0000
  C   C40       1.0  0.3498295019726791  0.3368639307539322  0.0025052563366447836  1.0000
  C   C41       1.0  0.4413967198183017  0.385731489768108  0.5896651101316812  1.0000
  C   C42       1.0  0.058603280559736494  0.385731489768108  0.41033488989797406  1.0000
  C   C43       1.0  0.9413967198461006  0.8857314909230125  0.08966511041445567  1.0000
  C   C44       1.0  0.5586032804296127  0.8857314909230125  0.9103348898974004  1.0000
  C   C45       1.0  0.5586032805075275  0.6142685098984532  0.4103348898698946  1.0000
  C   C46       1.0  0.9413967197660928  0.6142685098984532  0.5896651101036018  1.0000
  C   C47       1.0  0.05860328047972857  0.11426851138679649  0.9103348895871202  1.0000
  C   C48       1.0  0.4413967198962166  0.11426851138679649  0.08966511010417544  1.0000
  N   N1        1.0  0.3271165008054981  0.8673455429863277  0.28972378638652624  1.0000
  N   N2        1.0  0.17288349957254015  0.8673455429863277  0.7102762136431292  1.0000
  N   N3        1.0  0.8271165006753742  0.3673455418314232  0.7897237863859525  1.0000
  N   N4        1.0  0.672883499600339  0.3673455418314232  0.2102762139259035  1.0000
  N   N5        1.0  0.6728834995203311  0.13265445668023346  0.7102762136150497  1.0000
  N   N6        1.0  0.827116500753289  0.13265445668023346  0.28972378635844676  1.0000
  N   N7        1.0  0.17288349906437808  0.632654457835138  0.21027621361290005  1.0000
  N   N8        1.0  0.32711650072549014  0.632654457835138  0.7897237860756723  1.0000
  N   N9        1.0  0.38061593162718094  0.024398284654093952  0.2641230178658308  1.0000
  N   N10       1.0  0.1193840687508572  0.024398284654093952  0.7358769821638245  1.0000
  N   N11       1.0  0.8806159314970572  0.5243982858089984  0.7641230178652572  1.0000
  N   N12       1.0  0.6193840687765632  0.5243982858089984  0.23587698210823915  1.0000
  N   N13       1.0  0.6193840686986481  0.9756017150124672  0.7358769821357448  1.0000
  N   N14       1.0  0.8806159315749721  0.9756017150124672  0.2641230178377514  1.0000
  N   N15       1.0  0.11938406882877203  0.4756017138575627  0.23587698213631864  1.0000
  N   N16       1.0  0.38061593154926615  0.4756017138575627  0.7641230178933367  1.0000
  N   N17       1.0  0.44809105477899436  0.09210499758511875  0.28566406814443157  1.0000
  N   N18       1.0  0.05190894559904384  0.09210499758511875  0.7143359318852238  1.0000
  N   N19       1.0  0.9480910546488707  0.5921049987400232  0.7856640681438578  1.0000
  N   N20       1.0  0.5519089456247497  0.5921049987400232  0.21433593182963842  1.0000
  N   N21       1.0  0.5519089455468349  0.9078950020814425  0.7143359318571442  1.0000
  N   N22       1.0  0.9480910547267855  0.9078950020814425  0.2856640681163521  1.0000
  N   N23       1.0  0.05190894567695867  0.40789500356978575  0.21433593185771793  1.0000
  N   N24       1.0  0.4480910547010795  0.40789500356978575  0.7856640681719375  1.0000
  N   N25       1.0  0.4393551852233975  0.9803827026750549  0.3276289162243509  1.0000
  N   N26       1.0  0.060644814568563826  0.9803827026750549  0.6723710838025811  1.0000
  N   N27       1.0  0.9393551850932736  0.48038270416339823  0.8276289162237772  1.0000
  N   N28       1.0  0.5606448145942697  0.48038270416339823  0.17237108374699592  1.0000
  N   N29       1.0  0.5606448145163548  0.019617296991506186  0.6723710837745017  1.0000
  N   N30       1.0  0.9393551851711884  0.019617296991506186  0.3276289161962714  1.0000
  N   N31       1.0  0.06064481464647866  0.5196172955031629  0.17237108377507543  1.0000
  N   N32       1.0  0.43935518514548266  0.5196172955031629  0.8276289162518567  1.0000
  N   N33       1.0  0.33663240351707063  0.6934222726104958  0.36841035906965736  1.0000
  N   N34       1.0  0.16336759686096758  0.6934222726104958  0.631589640959998  1.0000
  N   N35       1.0  0.8366324033869468  0.19342227145559132  0.8684103590690836  1.0000
  N   N36       1.0  0.6633675968866735  0.19342227145559132  0.1315896409044127  1.0000
  N   N37       1.0  0.6633675968087587  0.30657772705606534  0.6315896409319185  1.0000
  N   N38       1.0  0.8366324034648617  0.30657772705606534  0.3684103590415778  1.0000
  N   N39       1.0  0.16336759693888245  0.8065777282109698  0.13158964093249217  1.0000
  N   N40       1.0  0.3366324034391558  0.8065777282109698  0.8684103590971631  1.0000
  N   N41       1.0  0.26506846260113137  0.7858963098795407  0.3851761437761056  1.0000
  N   N42       1.0  0.23493153719082996  0.7858963098795407  0.6148238562508266  1.0000
  N   N43       1.0  0.7650684630570844  0.28589631136788407  0.885176143778255  1.0000
  N   N44       1.0  0.7349315372186289  0.28589631136788407  0.11482385653360098  1.0000
  N   N45       1.0  0.7349315371386209  0.21410368978702043  0.614823856222747  1.0000
  N   N46       1.0  0.7650684625489224  0.21410368978702043  0.38517614374802606  1.0000
  N   N47       1.0  0.23493153726874477  0.7141036882986771  0.11482385622332074  1.0000
  N   N48       1.0  0.2650684625211235  0.7141036882986771  0.8851761434652518  1.0000
  N   N49       1.0  0.4597319427135469  0.4024862234102783  0.46196717890468053  1.0000
  N   N50       1.0  0.04026805707841441  0.4024862234102783  0.5380328211222516  1.0000
  N   N51       1.0  0.9597319425834231  0.902486221921935  0.9619671789041069  1.0000
  N   N52       1.0  0.5402680571041202  0.902486221921935  0.0380328210666663  1.0000
  N   N53       1.0  0.5402680576122824  0.5975137762562828  0.5380328210968953  1.0000
  N   N54       1.0  0.9597319426613379  0.5975137762562828  0.46196717887660105  1.0000
  N   N55       1.0  0.04026805715632925  0.09751377774462618  0.038032821094745796  1.0000
  N   N56       1.0  0.4597319426356321  0.09751377774462618  0.9619671789321863  1.0000
  O   O1        1.0  0.24973714222143906  0.6646207944144321  0.4231749324212846  1.0000
  O   O2        1.0  0.25026285757052225  0.6646207944144321  0.5768250676056476  1.0000
  O   O3        1.0  0.7497371426773921  0.16462079325952758  0.9231749324234342  1.0000
  O   O4        1.0  0.7502628575962281  0.16462079325952758  0.07682506755006217  1.0000
  O   O5        1.0  0.7502628575183133  0.3353792052521291  0.576825067577568  1.0000
  O   O6        1.0  0.7497371427553069  0.3353792052521291  0.42317493239592835  1.0000
  O   O7        1.0  0.2502628576484371  0.8353792064070336  0.07682506757814167  1.0000
  O   O8        1.0  0.24973714272960115  0.8353792064070336  0.9231749324515135  1.0000
  O   O9        1.0  0.2206391441445879  0.9736492483108838  0.3619254657443082  1.0000
  O   O10       1.0  0.27936085623345025  0.9736492483108838  0.6380745342853471  1.0000
  O   O11       1.0  0.720639144014464  0.4736492497992272  0.8619254657437345  1.0000
  O   O12       1.0  0.7793608562591561  0.4736492497992272  0.13807453422976182  1.0000
  O   O13       1.0  0.7793608561812413  0.026350751355677313  0.6380745342572676  1.0000
  O   O14       1.0  0.720639144092379  0.026350751355677313  0.3619254657162287  1.0000
  O   O15       1.0  0.27936085572528824  0.5263507525105818  0.13807453425511812  1.0000
  O   O16       1.0  0.22063914406667307  0.5263507525105818  0.8619254657718141  1.0000
  O   O17       1.0  0.4213700920915209  0.3009781546275811  0.42574066754962425  1.0000
  O   O18       1.0  0.07862990770044045  0.3009781546275811  0.5742593324773078  1.0000
  O   O19       1.0  0.9213700925474739  0.8009781531392377  0.9257406675517739  1.0000
  O   O20       1.0  0.5786299077261463  0.8009781531392377  0.07425933242172257  1.0000
  O   O21       1.0  0.5786299076482315  0.69902184503898  0.5742593324492284  1.0000
  O   O22       1.0  0.9213700920393119  0.69902184503898  0.42574066752154477  1.0000
  O   O23       1.0  0.0786299077783553  0.1990218465273234  0.07425933244980205  1.0000
  O   O24       1.0  0.4213700925996829  0.1990218465273234  0.9257406675798532  1.0000
