data_image0
_chemical_formula_structural       H32C44N8O2Br4
_chemical_formula_sum              "H32 C44 N8 O2 Br4"
_cell_length_a       5.262542278580499
_cell_length_b       13.175116730273901
_cell_length_c       14.993752366884255
_cell_angle_alpha    102.51346699922608
_cell_angle_beta     99.48163934992922
_cell_angle_gamma    94.96861556320187

_space_group_name_H-M_alt    "P 1"
_space_group_IT_number       1

loop_
  _space_group_symop_operation_xyz
  'x, y, z'

loop_
  _atom_site_type_symbol
  _atom_site_label
  _atom_site_symmetry_multiplicity
  _atom_site_fract_x
  _atom_site_fract_y
  _atom_site_fract_z
  _atom_site_occupancy
  H   H1        1.0  0.7647069419883534  0.07906751451113736  0.43476375903989645  1.0000
  H   H2        1.0  0.23529305780087234  0.9209324856178355  0.5652362404714139  1.0000
  H   H3        1.0  0.18529802519447594  0.3471138162052216  0.5338185133862978  1.0000
  H   H4        1.0  0.8147019747988066  0.6528861833459839  0.46618148682059735  1.0000
  H   H5        1.0  0.11761214090360622  0.4880809614024857  0.44621545828417003  1.0000
  H   H6        1.0  0.8823878592510382  0.5119190389106093  0.5537845419228072  1.0000
  H   H7        1.0  0.34582036453629367  0.5002450791545207  0.3177350213575013  1.0000
  H   H8        1.0  0.6541796356183509  0.49975492115857434  0.682264978849476  1.0000
  H   H9        1.0  0.6445772580702567  0.37119974897451397  0.26751695443024576  1.0000
  H   H10       1.0  0.3554227419230258  0.6288002505766913  0.7324830457766494  1.0000
  H   H11       1.0  0.758568546690998  0.23697680132380172  0.9921530422345493  1.0000
  H   H12       1.0  0.24143145346364664  0.7630231989892933  0.00784695797242815  1.0000
  H   H13       1.0  0.012722287771593059  0.25632478917207735  0.15042786210311498  1.0000
  H   H14       1.0  0.9872777123830516  0.7436752111410176  0.8495721381038623  1.0000
  H   H15       1.0  0.3964894156623053  0.06598763802378607  0.217490489849473  1.0000
  H   H16       1.0  0.6035105843309772  0.9340123615274193  0.7825095103574221  1.0000
  H   H17       1.0  0.1402483193714235  0.047260735121016785  0.06014796744932149  1.0000
  H   H18       1.0  0.8597516807832211  0.9527392651920781  0.9398520327576558  1.0000
  H   H19       1.0  0.9621704796304144  0.10470889359928978  0.3006122581034588  1.0000
  H   H20       1.0  0.03782952036286813  0.8952911059519155  0.6993877421034363  1.0000
  H   H21       1.0  0.04244759499211155  0.23898551994732092  0.30423206740879505  1.0000
  H   H22       1.0  0.9575524051625328  0.761014480365774  0.6957679327981823  1.0000
  H   H23       1.0  0.24461806866278302  0.4070944839176009  0.7209062057726013  1.0000
  H   H24       1.0  0.7553819313304995  0.5929055156336044  0.2790937944342939  1.0000
  H   H25       1.0  0.14018055180175956  0.5632463835530089  0.8285120165003369  1.0000
  H   H26       1.0  0.8598194483528849  0.43675361676008606  0.17148798370664045  1.0000
  H   H27       1.0  0.5241747604212695  0.3704797042832762  0.893826949189792  1.0000
  H   H28       1.0  0.475825239572013  0.6295202952679292  0.10617305101710317  1.0000
  H   H29       1.0  0.6321434704933355  0.21484890284881497  0.7888228343277539  1.0000
  H   H30       1.0  0.36785652929589024  0.7851510972801579  0.2111771651835564  1.0000
  H   H31       1.0  0.36330912649966657  0.1497133666644589  0.5408966643483281  1.0000
  H   H32       1.0  0.636690873654978  0.850286633648636  0.45910333585864926  1.0000
  C   C1        1.0  0.6802189523166948  0.1503610503172839  0.429186146577988  1.0000
  C   C2        1.0  0.3197810474725309  0.849638949811689  0.5708138529333222  1.0000
  C   C3        1.0  0.4541144373113826  0.28121136606089076  0.449314905920669  1.0000
  C   C4        1.0  0.545885562843262  0.7187886342522041  0.5506850942863083  1.0000
  C   C5        1.0  0.28363758625524826  0.35300861989197757  0.4762722406969384  1.0000
  C   C6        1.0  0.7163624135339778  0.6469913802369953  0.523727758814372  1.0000
  C   C7        1.0  0.24708652423386562  0.4303027838506806  0.42687372025605147  1.0000
  C   C8        1.0  0.7529134755553603  0.5696972162782923  0.5731262792552589  1.0000
  C   C9        1.0  0.3780439939599876  0.43748840286080676  0.3533733314121485  1.0000
  C   C10       1.0  0.621956006194657  0.5625115974522883  0.6466266687948288  1.0000
  C   C11       1.0  0.5473530814487763  0.36653298753893193  0.325426033186963  1.0000
  C   C12       1.0  0.4526469183404497  0.633467012590041  0.6745739663243473  1.0000
  C   C13       1.0  0.5816614160297553  0.2881863975371154  0.3742978859452253  1.0000
  C   C14       1.0  0.41833858412488917  0.7118136027759795  0.625702114261752  1.0000
  C   C15       1.0  0.4343801952422873  0.14095877157776232  0.01709564787036118  1.0000
  C   C16       1.0  0.5656198049123572  0.8590412287353326  0.982904352336616  1.0000
  C   C17       1.0  0.6795428739575733  0.1992126726598687  0.04123046358377786  1.0000
  C   C18       1.0  0.32045712619707134  0.8007873276532262  0.9587695366231995  1.0000
  C   C19       1.0  0.8217269184825635  0.20988370685387206  0.1308119910829159  1.0000
  C   C20       1.0  0.17827308130666242  0.7901162932751009  0.8691880084283944  1.0000
  C   C21       1.0  0.722603606685345  0.1627036222551467  0.19501643705634636  1.0000
  C   C22       1.0  0.2773963934692995  0.8372963780579483  0.8049835631506309  1.0000
  C   C23       1.0  0.47705344071621164  0.10347784132729551  0.16840529843883834  1.0000
  C   C24       1.0  0.5229465590730142  0.8965221588016774  0.831594701072472  1.0000
  C   C25       1.0  0.33193663310880905  0.09242935834589193  0.07960928401427511  1.0000
  C   C26       1.0  0.6680633666804168  0.9075706417830809  0.9203907154970352  1.0000
  C   C27       1.0  0.8794470330668966  0.17654004318416205  0.2917354876666237  1.0000
  C   C28       1.0  0.12055296708774782  0.8234599571289329  0.7082645125403536  1.0000
  C   C29       1.0  0.9444435477769001  0.30016607810139423  0.7464270413092905  1.0000
  C   C30       1.0  0.055556452012325556  0.6998339220275787  0.25357295820201986  1.0000
  C   C31       1.0  0.08661028820991415  0.39924490050671224  0.7584941951323392  1.0000
  C   C32       1.0  0.9133897114179496  0.6007550988603712  0.24150580437888888  1.0000
  C   C33       1.0  0.02834870846632653  0.48676524619493267  0.8184295334947606  1.0000
  C   C34       1.0  0.9716512911615374  0.5132347531721506  0.1815704660164676  1.0000
  C   C35       1.0  0.8243389584246826  0.4756012351360758  0.866006034445018  1.0000
  C   C36       1.0  0.17566104136454314  0.5243987649928972  0.13399396506629224  1.0000
  C   C37       1.0  0.6823056125290767  0.37822181669650806  0.8562372641595645  1.0000
  C   C38       1.0  0.3176943874642058  0.6217781828546973  0.14376273604733075  1.0000
  C   C39       1.0  0.7438503562275762  0.2909258079104452  0.796583176705293  1.0000
  C   C40       1.0  0.25614964392706824  0.7090741924026498  0.20341682350168433  1.0000
  C   C41       1.0  0.0066214010799274395  0.20724822887234015  0.6840318063693308  1.0000
  C   C42       1.0  0.9933785985479363  0.7927517704947431  0.3159681931418974  1.0000
  C   C43       1.0  0.877640988547069  0.10644912723826692  0.6814562853089605  1.0000
  C   C44       1.0  0.12235901160757559  0.8935508730748282  0.3185437148980169  1.0000
  N   N1        1.0  0.723817396764633  0.2037411356903829  0.3635330074939708  1.0000
  N   N2        1.0  0.27618260339001177  0.7962588646227121  0.6364669927130067  1.0000
  N   N3        1.0  0.5225805811270933  0.19441934459783386  0.48230920310481407  1.0000
  N   N4        1.0  0.4774194185007706  0.8055806547692494  0.5176907964064141  1.0000
  N   N5        1.0  0.18229049104366526  0.216037688678367  0.6327436866288133  1.0000
  N   N6        1.0  0.8177095091109793  0.783962311634728  0.36725631357816396  1.0000
  N   N7        1.0  0.7780998852829022  0.02326032121692045  0.6802029369264307  1.0000
  N   N8        1.0  0.22190011487174233  0.9767396790961745  0.3197970632805465  1.0000
  O   O1        1.0  0.22623203747468038  0.12477702499833501  0.5803292585009107  1.0000
  O   O2        1.0  0.7737679621531834  0.8752229743687483  0.41967074101031754  1.0000
  Br  Br1       1.0  0.23007206456244222  0.1293482813847103  0.8968960672740011  1.0000
  Br  Br2       1.0  0.7699279355922023  0.8706517189283847  0.10310393293297629  1.0000
  Br  Br3       1.0  0.7336980403031087  0.5970431965135274  0.9429164374741346  1.0000
  Br  Br4       1.0  0.26630195969017373  0.4029568030376779  0.05708356273276066  1.0000
