data_image0
_chemical_formula_structural       H72C92N16O4Br8
_chemical_formula_sum              "H72 C92 N16 O4 Br8"
_cell_length_a       4.9052112408741
_cell_length_b       22.53720246645381
_cell_length_c       19.204785002593272
_cell_angle_alpha    90.0
_cell_angle_beta     96.59660409930831
_cell_angle_gamma    90.0

_space_group_name_H-M_alt    "P 1"
_space_group_IT_number       1

loop_
  _space_group_symop_operation_xyz
  'x, y, z'

loop_
  _atom_site_type_symbol
  _atom_site_label
  _atom_site_symmetry_multiplicity
  _atom_site_fract_x
  _atom_site_fract_y
  _atom_site_fract_z
  _atom_site_occupancy
  H   H1        1.0  0.9144138951836454  0.46891293876115475  0.2582143578181761  1.0000
  H   H2        1.0  0.0855861064470771  0.9689129386179736  0.2417856425072342  1.0000
  H   H3        1.0  0.08558610467423448  0.5310870613961937  0.7417856422022249  1.0000
  H   H4        1.0  0.9144138934108027  0.031087061539374843  0.7582143575131667  1.0000
  H   H5        1.0  0.5179471417602041  0.4801977635027598  0.16672644187116276  1.0000
  H   H6        1.0  0.4820528596305585  0.9801977633595785  0.33327355793007474  1.0000
  H   H7        1.0  0.48205286013583365  0.5198022366545886  0.8332735581481574  1.0000
  H   H8        1.0  0.5179471402273214  0.01980223635405901  0.6667264420903262  1.0000
  H   H9        1.0  0.516000297004507  0.6689014939826315  0.20462872805101118  1.0000
  H   H10       1.0  0.48399970234809775  0.16890149412581273  0.29537127175130706  1.0000
  H   H11       1.0  0.4839997028533728  0.331098505731006  0.7953712719693897  1.0000
  H   H12       1.0  0.516000297509782  0.8310985060315356  0.7046287282690938  1.0000
  H   H13       1.0  0.9087712806977357  0.6574371456286339  0.29637413071631835  1.0000
  H   H14       1.0  0.09122871865486895  0.15743714577181514  0.2036258690859999  1.0000
  H   H15       1.0  0.09122871916014404  0.34256285408500364  0.7036258693040824  1.0000
  H   H16       1.0  0.9087712812030109  0.8425628543855331  0.7963741309344009  1.0000
  H   H17       1.0  0.6214472342800991  0.4640397256743274  0.39123555320681064  1.0000
  H   H18       1.0  0.3785527650725056  0.964039725974857  0.10876444659550759  1.0000
  H   H19       1.0  0.3785527655777807  0.5359602740393101  0.6087644468135903  1.0000
  H   H20       1.0  0.6214472347853742  0.035960274182491384  0.8912355534248932  1.0000
  H   H21       1.0  0.3543750110178674  0.39958068058377744  0.2641531812947224  1.0000
  H   H22       1.0  0.6456249883347374  0.8995806804405961  0.2358468185075958  1.0000
  H   H23       1.0  0.6456249888400124  0.600419319573571  0.7358468187256785  1.0000
  H   H24       1.0  0.3543750115231425  0.10041931927304135  0.764153181512805  1.0000
  H   H25       1.0  0.3413276029771426  0.31233477271536436  0.18309746950911895  1.0000
  H   H26       1.0  0.65867239865358  0.8123347725721832  0.3169025308162913  1.0000
  H   H27       1.0  0.6586723968807372  0.687665227441984  0.8169025305112819  1.0000
  H   H28       1.0  0.3413276032424577  0.1876652271414544  0.6830974692030288  1.0000
  H   H29       1.0  0.6721592922572001  0.22997981926616431  0.20450285677924968  1.0000
  H   H30       1.0  0.3278407093735224  0.7299798191229832  0.2954971435461606  1.0000
  H   H31       1.0  0.3278407076006798  0.7700201808911841  0.7954971432411512  1.0000
  H   H32       1.0  0.6721592904843574  0.27002018059065447  0.7045028564742404  1.0000
  H   H33       1.0  0.03192387440490308  0.23105612277082982  0.3081211989813119  1.0000
  H   H34       1.0  0.9680761249477016  0.7310561226276485  0.1918788008210063  1.0000
  H   H35       1.0  0.9680761254529767  0.7689438773865185  0.6918788010390889  1.0000
  H   H36       1.0  0.031923874910178236  0.2689438775296997  0.8081211991993946  1.0000
  H   H37       1.0  0.971531153001658  0.4510199939468975  0.5046492873497689  1.0000
  H   H38       1.0  0.028468847361496845  0.9510199938037163  0.9953507128887146  1.0000
  H   H39       1.0  0.028468846856221783  0.54898000576674  0.495350712670632  1.0000
  H   H40       1.0  0.9715311524963831  0.048980005909921284  0.004649287131686282  1.0000
  H   H41       1.0  0.3010170424036992  0.43818127448157385  0.47759600380164735  1.0000
  H   H42       1.0  0.6989829569489056  0.9381812747821034  0.022403996000670914  1.0000
  H   H43       1.0  0.6989829574541807  0.5618187252320637  0.5224039962187536  1.0000
  H   H44       1.0  0.30101704290897435  0.061818725375244896  0.97759600401973  1.0000
  H   H45       1.0  0.16089082068591415  0.38626810993768296  0.5324718148887879  1.0000
  H   H46       1.0  0.8391091794372807  0.8862681097945018  0.9675281848255228  1.0000
  H   H47       1.0  0.8391091791719656  0.6137318897759546  0.46752818513161293  1.0000
  H   H48       1.0  0.16089082042059905  0.11373188991913578  0.03247181519487802  1.0000
  H   H49       1.0  0.3836267484966646  0.09917088659636462  0.5043883998282822  1.0000
  H   H50       1.0  0.6163732495883726  0.5991708864531834  0.9956115998871093  1.0000
  H   H51       1.0  0.6163732513612152  0.9008291135609837  0.49561160019211864  1.0000
  H   H52       1.0  0.38362675026950727  0.4008291132604542  0.004388400133291605  1.0000
  H   H53       1.0  0.4963388979163225  0.18494122623267348  0.43300255890722966  1.0000
  H   H54       1.0  0.5036611014362823  0.684941226533203  0.06699744089508863  1.0000
  H   H55       1.0  0.5036611019415574  0.815058773480964  0.5669974411131713  1.0000
  H   H56       1.0  0.49633889842159745  0.3150587736241453  0.933002559125312  1.0000
  H   H57       1.0  0.9094077477522317  0.2920814062791608  0.5283898567491955  1.0000
  H   H58       1.0  0.09059225261092319  0.7920814061359795  0.9716101434892879  1.0000
  H   H59       1.0  0.09059225210564817  0.7079185938781875  0.4716101432712054  1.0000
  H   H60       1.0  0.9094077472469567  0.20791859402136875  0.02838985653111292  1.0000
  H   H61       1.0  0.795512717699496  0.20645250078955873  0.5989755448190133  1.0000
  H   H62       1.0  0.204487280625501  0.7064525006463775  0.9010244554205509  1.0000
  H   H63       1.0  0.20448728215838374  0.7935474993677896  0.4010244552013875  1.0000
  H   H64       1.0  0.7955127192323789  0.29354749906726  0.09897554459984999  1.0000
  H   H65       1.0  0.4306335277548684  0.3268183294250256  0.46826640409189496  1.0000
  H   H66       1.0  0.5693664718376963  0.8268183292818444  0.03173359623459595  1.0000
  H   H67       1.0  0.5693664721030114  0.6731816707323228  0.5317335959285059  1.0000
  H   H68       1.0  0.4306335280201837  0.17318167087550398  0.968266403785805  1.0000
  H   H69       1.0  0.4140831448330544  0.2823053113832681  0.39199556094657434  1.0000
  H   H70       1.0  0.5859168547595104  0.7823053112400868  0.10800443937991665  1.0000
  H   H71       1.0  0.5859168550248254  0.7176946887740803  0.6080044390738265  1.0000
  H   H72       1.0  0.4140831450983695  0.21769468847355067  0.8919955606404842  1.0000
  C   C1        1.0  0.9452798238379135  0.5625322148510142  0.28235018872701784  1.0000
  C   C2        1.0  0.05472017575465129  0.06253221455048459  0.21764981159947308  1.0000
  C   C3        1.0  0.05472017601996639  0.4374677853063342  0.717649811293383  1.0000
  C   C4        1.0  0.9452798241032286  0.937467785163153  0.7823501884209277  1.0000
  C   C5        1.0  0.8302534113154454  0.5128126437699139  0.24575048016753323  1.0000
  C   C6        1.0  0.1697465880371594  0.01281264346938425  0.254249519634785  1.0000
  C   C7        1.0  0.16974658854243446  0.4871873563874345  0.7542495198528676  1.0000
  C   C8        1.0  0.8302534118207205  0.9871873562442534  0.7457504803856159  1.0000
  C   C9        1.0  0.6078562187277258  0.518939481393418  0.19446407504379581  1.0000
  C   C10       1.0  0.392143780864839  0.018939481536599207  0.30553592528269513  1.0000
  C   C11       1.0  0.3921437811301541  0.48106051832021957  0.8055359249766051  1.0000
  C   C12       1.0  0.6078562189930409  0.9810605186207492  0.6944640747377058  1.0000
  C   C13       1.0  0.4994914324119031  0.575404978470715  0.17915277644348307  1.0000
  C   C14       1.0  0.5005085692188194  0.07540497861389629  0.32084722388192716  1.0000
  C   C15       1.0  0.5005085674459767  0.4245950212429225  0.8208472235769178  1.0000
  C   C16       1.0  0.4994914306390605  0.924595021543452  0.6791527761384738  1.0000
  C   C17       1.0  0.6057527041449063  0.6252219036934071  0.21571116057852402  1.0000
  C   C18       1.0  0.3942472974858162  0.12522190383658832  0.2842888397468862  1.0000
  C   C19       1.0  0.39424729571297357  0.3747780960202305  0.7842888394418769  1.0000
  C   C20       1.0  0.6057527023720636  0.8747780963207601  0.7157111602735147  1.0000
  C   C21       1.0  0.8272586063201666  0.6184788462874933  0.26735246507576094  1.0000
  C   C22       1.0  0.17274139327239815  0.11847884643067452  0.2326475352507301  1.0000
  C   C23       1.0  0.17274139353771326  0.3815211534261443  0.73264753494464  1.0000
  C   C24       1.0  0.8272586065854817  0.8815211537266738  0.7673524647696708  1.0000
  C   C25       1.0  0.18504687688989913  0.5565096190917563  0.33499887904552034  1.0000
  C   C26       1.0  0.8149531245008633  0.056509619234937546  0.1650011207557172  1.0000
  C   C27       1.0  0.8149531250061385  0.443490381065592  0.6650011209737998  1.0000
  C   C28       1.0  0.18504687535701647  0.9434903809224108  0.8349988792646836  1.0000
  C   C29       1.0  0.28624843330825606  0.6079077658548344  0.3733926507314698  1.0000
  C   C30       1.0  0.7137515660443488  0.10790776599801571  0.12660734907084842  1.0000
  C   C31       1.0  0.7137515665496238  0.39209223430251383  0.626607349288931  1.0000
  C   C32       1.0  0.28624843381353116  0.8920922341593327  0.8733926509495524  1.0000
  C   C33       1.0  0.9759988742411557  0.38579244353605413  0.42564946936288806  1.0000
  C   C34       1.0  0.024001127149606852  0.8857924438365837  0.07435053043834941  1.0000
  C   C35       1.0  0.02400112561672416  0.6142075561775834  0.5743505306575127  1.0000
  C   C36       1.0  0.9759988747464309  0.11420755632076467  0.9256494695809708  1.0000
  C   C37       1.0  0.7040712113407949  0.36430573147759  0.3306163599767014  1.0000
  C   C38       1.0  0.2959287882517699  0.8643057317781195  0.16938364034978953  1.0000
  C   C39       1.0  0.295928788517085  0.6356942682360476  0.6693836400436994  1.0000
  C   C40       1.0  0.70407121160611  0.1356942683792288  0.8306163596706113  1.0000
  C   C41       1.0  0.5014477837395889  0.3633596207066663  0.27304592622236157  1.0000
  C   C42       1.0  0.4985522176511737  0.863359620563485  0.226954073578876  1.0000
  C   C43       1.0  0.498552216118291  0.6366403794506821  0.7269540737980393  1.0000
  C   C44       1.0  0.501447784244864  0.13664037915015248  0.7730459264404442  1.0000
  C   C45       1.0  0.49616714058911177  0.3143920355930003  0.228508539111767  1.0000
  C   C46       1.0  0.503832859003453  0.8143920354498191  0.27149146121472395  1.0000
  C   C47       1.0  0.503832859268768  0.685607964564348  0.7714914609086339  1.0000
  C   C48       1.0  0.49616714085442687  0.18560796426381848  0.7285085388056769  1.0000
  C   C49       1.0  0.685211875803246  0.26738532473006615  0.2408398141161116  1.0000
  C   C50       1.0  0.31478812354935864  0.7673853245868849  0.2591601856862066  1.0000
  C   C51       1.0  0.3147881240546338  0.7326146754272821  0.7591601859042892  1.0000
  C   C52       1.0  0.6852118763085211  0.2326146755704634  0.7408398143341942  1.0000
  C   C53       1.0  0.8880201060611884  0.2677191057311109  0.2982049629978355  1.0000
  C   C54       1.0  0.11197989329141635  0.7677191060316404  0.20179503680448274  1.0000
  C   C55       1.0  0.11197989379669147  0.7322808939825266  0.7017950370225654  1.0000
  C   C56       1.0  0.8880201065664635  0.23228089412570788  0.7982049632159182  1.0000
  C   C57       1.0  0.8949715308740898  0.3171584823200421  0.34213974714256146  1.0000
  C   C58       1.0  0.105028468718475  0.8171584821768608  0.1578602531839295  1.0000
  C   C59       1.0  0.10502846898379012  0.6828415178373062  0.6578602528778394  1.0000
  C   C60       1.0  0.8949715311394049  0.18284151798048745  0.8421397468364714  1.0000
  C   C61       1.0  0.10917583042537392  0.4167656808328763  0.4885063576613701  1.0000
  C   C62       1.0  0.8908241709653886  0.9167656811334058  0.011493642139867389  1.0000
  C   C63       1.0  0.8908241714706637  0.5832343188807613  0.51149364235795  1.0000
  C   C64       1.0  0.10917582889249126  0.0832343190239425  0.9885063578805335  1.0000
  C   C65       1.0  0.08277121834939766  0.14807215735703033  0.5557079898699073  1.0000
  C   C66       1.0  0.9172287817737973  0.648072157213849  0.9442920098444034  1.0000
  C   C67       1.0  0.9172287812685223  0.851927842800318  0.4442920096263208  1.0000
  C   C68       1.0  0.08277121808408258  0.3519278424997884  0.055707990175997424  1.0000
  C   C69       1.0  0.27995171284271964  0.14142939456413978  0.509446795221819  1.0000
  C   C70       1.0  0.7200482872804752  0.6414293944209586  0.9905532044924917  1.0000
  C   C71       1.0  0.720048289053318  0.8585706055932085  0.4905532047975011  1.0000
  C   C72       1.0  0.2799517125774046  0.35857060573638977  0.009446795527909157  1.0000
  C   C73       1.0  0.34233429185505915  0.1901222042255633  0.46926865916460714  1.0000
  C   C74       1.0  0.6576657074975456  0.6901222040823821  0.0307313406377112  1.0000
  C   C75       1.0  0.6576657080028208  0.8098777959317851  0.5307313408557939  1.0000
  C   C76       1.0  0.3423342923603343  0.30987779607496624  0.9692686593826897  1.0000
  C   C77       1.0  0.2126580274960989  0.24473866258290267  0.4754925689260588  1.0000
  C   C78       1.0  0.7873419718565058  0.7447386624397215  0.02450743087625945  1.0000
  C   C79       1.0  0.7873419723617809  0.7552613375744457  0.5245074310943422  1.0000
  C   C80       1.0  0.21265802800137398  0.2552613372739161  0.9754925691441414  1.0000
  C   C81       1.0  0.016218962096089893  0.25027013971213197  0.5224926312495376  1.0000
  C   C82       1.0  0.9837810380271051  0.7502701395689507  0.9775073684647732  1.0000
  C   C83       1.0  0.9837810397999477  0.7497298604452164  0.4775073687697825  1.0000
  C   C84       1.0  0.016218961830774793  0.24972986058839758  0.022492631555627737  1.0000
  C   C85       1.0  0.9498848737037751  0.20211031013188221  0.5628453610771371  1.0000
  C   C86       1.0  0.05011512665937994  0.702110309988701  0.9371546391613463  1.0000
  C   C87       1.0  0.05011512615410477  0.7978896900254662  0.4371546389432637  1.0000
  C   C88       1.0  0.9498848731984999  0.29788968972493657  0.0628453608590545  1.0000
  C   C89       1.0  0.29638664914468155  0.29727714120563614  0.43406306284801943  1.0000
  C   C90       1.0  0.7036133504478832  0.7972771410624548  0.0659369374784715  1.0000
  C   C91       1.0  0.7036133507131983  0.7027228589517122  0.5659369371723814  1.0000
  C   C92       1.0  0.29638664940999665  0.2027228586511826  0.9340630625419293  1.0000
  N   N1        1.0  0.3110247429788874  0.5055017124222786  0.34522241023650585  1.0000
  N   N2        1.0  0.6889752586518352  0.005501712565459778  0.15477759008890438  1.0000
  N   N3        1.0  0.6889752568789925  0.4944982877350698  0.654777589783895  1.0000
  N   N4        1.0  0.31102474324420254  0.9944982875918885  0.8452224099304159  1.0000
  N   N5        1.0  0.36960984089713395  0.6499699335711261  0.4044297973215132  1.0000
  N   N6        1.0  0.6303901604936285  0.14996993371430725  0.09557020247972428  1.0000
  N   N7        1.0  0.630390158960746  0.3500300661425115  0.5955702026988876  1.0000
  N   N8        1.0  0.3696098393642512  0.8500300664430411  0.9044297975406764  1.0000
  N   N9        1.0  0.06585141127833728  0.3324883525874038  0.402262936994551  1.0000
  N   N10       1.0  0.9341485880742676  0.8324883528879333  0.09773706280776721  1.0000
  N   N11       1.0  0.9341485885795425  0.6675116471262338  0.5977370630258498  1.0000
  N   N12       1.0  0.06585141178361234  0.167511647269415  0.9022629372126336  1.0000
  N   N13       1.0  0.7590318494114615  0.40568553011888697  0.384069108814829  1.0000
  N   N14       1.0  0.24096815018110318  0.9056855299757057  0.11593089151166198  1.0000
  N   N15       1.0  0.2409681504464183  0.5943144700384614  0.615930891205572  1.0000
  N   N16       1.0  0.7590318496767766  0.0943144701816426  0.8840691085087389  1.0000
  O   O1        1.0  0.528082797215703  0.506710180955165  0.3953082297235321  1.0000
  O   O2        1.0  0.4719172021369018  0.006710180654635419  0.10469177007878622  1.0000
  O   O3        1.0  0.4719172024022168  0.4932898192021834  0.6046917697726961  1.0000
  O   O4        1.0  0.5280827977209781  0.993289819059002  0.8953082299416147  1.0000
  Br  Br1       1.0  0.2008780610640141  0.5854349779942348  0.10786706742344948  1.0000
  Br  Br2       1.0  0.7991219403267484  0.08543497813741605  0.392132932377788  1.0000
  Br  Br3       1.0  0.7991219408320235  0.41456502216311353  0.8921329325958707  1.0000
  Br  Br4       1.0  0.20087805953113144  0.9145650220199323  0.6078670676426129  1.0000
  Br  Br5       1.0  0.9885738213629043  0.08141096760926862  0.6090213423719945  1.0000
  Br  Br6       1.0  0.011426178760290753  0.5814109674660873  0.8909786573423163  1.0000
  Br  Br7       1.0  0.01142618053313341  0.9185890325480798  0.3909786576473257  1.0000
  Br  Br8       1.0  0.9885738210975892  0.4185890322475502  0.10902134267808453  1.0000
