data_image0
_chemical_formula_structural       H82B40C66
_chemical_formula_sum              "H82 B40 C66"
_cell_length_a       10.289478251090392
_cell_length_b       13.56496629875954
_cell_length_c       13.864445305640528
_cell_angle_alpha    79.69310826979154
_cell_angle_beta     72.32776547055278
_cell_angle_gamma    73.6973462311606

_space_group_name_H-M_alt    "P 1"
_space_group_IT_number       1

loop_
  _space_group_symop_operation_xyz
  'x, y, z'

loop_
  _atom_site_type_symbol
  _atom_site_label
  _atom_site_symmetry_multiplicity
  _atom_site_fract_x
  _atom_site_fract_y
  _atom_site_fract_z
  _atom_site_occupancy
  H   H1        1.0  0.4817760775233869  0.4515593369348995  0.6743798697035991  1.0000
  H   H2        1.0  0.5182239226245713  0.5484406628492844  0.3256201300251401  1.0000
  H   H3        1.0  0.4888215526477588  0.13508459967777584  0.5512813470982181  1.0000
  H   H4        1.0  0.5111784472166515  0.8649154008746427  0.44871865262897753  1.0000
  H   H5        1.0  0.7185295424165892  0.6589233027122309  0.48159615542154216  1.0000
  H   H6        1.0  0.28147045744782095  0.3410766978401876  0.5184038443056536  1.0000
  H   H7        1.0  0.8396600793545027  0.5300747595699586  0.3629690648646337  1.0000
  H   H8        1.0  0.1603399205099075  0.46992524098245975  0.6370309348625619  1.0000
  H   H9        1.0  0.6777504041647183  0.1068556271472406  0.2337486766781805  1.0000
  H   H10       1.0  0.32224959598323977  0.8931443726369434  0.7662513230505587  1.0000
  H   H11       1.0  0.24322842189900112  0.10648153693136406  0.5798765871471321  1.0000
  H   H12       1.0  0.7567715782489572  0.8935184628528199  0.420123412581607  1.0000
  H   H13       1.0  0.514625983294784  0.05659034808479641  0.4000283467417547  1.0000
  H   H14       1.0  0.4853740165696262  0.943409652467622  0.599971652985441  1.0000
  H   H15       1.0  0.8106910994985915  0.23056234377298704  0.22552367230640022  1.0000
  H   H16       1.0  0.18930890036560188  0.7694376559336373  0.7744763281833352  1.0000
  H   H17       1.0  0.11814284489716169  0.9769037570088014  0.5720623011287038  1.0000
  H   H18       1.0  0.8818571546834835  0.02309624346605761  0.427937699359488  1.0000
  H   H19       1.0  0.8601322799876755  0.009282642841016452  0.642569289189042  1.0000
  H   H20       1.0  0.1398677195929697  0.9907173576338426  0.35743071129914983  1.0000
  H   H21       1.0  0.04865447701702126  0.1981716371309381  0.43960984278860876  1.0000
  H   H22       1.0  0.9513455238189453  0.8018283634212894  0.560390156939516  1.0000
  H   H23       1.0  0.5358153939141369  0.6192982710189666  0.6400500644157981  1.0000
  H   H24       1.0  0.46418460595027333  0.380701729533452  0.3599499353113975  1.0000
  H   H25       1.0  0.10706743881883277  0.27048102936353646  0.6565162167489779  1.0000
  H   H26       1.0  0.8929325613291255  0.7295189704206474  0.3434837829797612  1.0000
  H   H27       1.0  0.2292142211530935  0.49489870639853956  0.2410420301448439  1.0000
  H   H28       1.0  0.7707857787113167  0.505101294153879  0.7589579695823517  1.0000
  H   H29       1.0  0.41696105128194777  0.0052738822172308415  0.8204623048116009  1.0000
  H   H30       1.0  0.5830389485824625  0.9947261183351878  0.17953769491559476  1.0000
  H   H31       1.0  0.8493266507690703  0.3031008282376742  0.7260467903602777  1.0000
  H   H32       1.0  0.15067334909533978  0.6968991723147442  0.27395320936691797  1.0000
  H   H33       1.0  0.03318200208692553  0.23917924020060385  0.01997881853055204  1.0000
  H   H34       1.0  0.9668179980610325  0.7608207595835801  0.9800211811981873  1.0000
  H   H35       1.0  0.7526462510173398  0.47047889836835594  0.21326207125742738  1.0000
  H   H36       1.0  0.24735374884707043  0.5295211021840626  0.7867379284697682  1.0000
  H   H37       1.0  0.6370853515377556  0.36004575591577637  0.7525612172929077  1.0000
  H   H38       1.0  0.3629146486102025  0.6399542438684076  0.24743878243583148  1.0000
  H   H39       1.0  0.2049597304051333  0.2130640728100672  0.07088595054744845  1.0000
  H   H40       1.0  0.7950402707143814  0.7869359269739256  0.9291140491822201  1.0000
  H   H41       1.0  0.7100021936434812  0.9975473680934135  0.8340605551236743  1.0000
  H   H42       1.0  0.28999780593716423  0.002452632381445368  0.16593944536451752  1.0000
  H   H43       1.0  0.8541810964826675  0.258814607840913  0.92993100606451  1.0000
  H   H44       1.0  0.14581890366529068  0.741185391943271  0.07006899366422925  1.0000
  H   H45       1.0  0.016082594606035266  0.42417760581059777  0.4285634042221874  1.0000
  H   H46       1.0  0.9839174055419229  0.5758223939735863  0.5714365955065518  1.0000
  H   H47       1.0  0.34650595969062714  0.1863769051334444  0.6637593154660859  1.0000
  H   H48       1.0  0.6534940401737829  0.8136230954189742  0.3362406842611097  1.0000
  H   H49       1.0  0.222569273326234  0.21487987359105434  0.8869475421138373  1.0000
  H   H50       1.0  0.7774307268217241  0.7851201261931297  0.11305245761490193  1.0000
  H   H51       1.0  0.5701963593935695  0.4864144270699954  0.12626562674584738  1.0000
  H   H52       1.0  0.4298036404708407  0.5135855734824232  0.8737343729813482  1.0000
  H   H53       1.0  0.3393035342589301  0.37950544913728257  0.7362577876638337  1.0000
  H   H54       1.0  0.6606964656054799  0.620494551415136  0.26374221206336207  1.0000
  H   H55       1.0  0.6183403273615583  0.3801887748060183  0.9843033246514821  1.0000
  H   H56       1.0  0.38165967278639995  0.6198112249781654  0.01569667507725711  1.0000
  H   H57       1.0  0.31341436256940547  0.28594881812967904  0.36892621533260345  1.0000
  H   H58       1.0  0.6865856375785528  0.714051181654505  0.6310737843961356  1.0000
  H   H59       1.0  0.41057649027378085  0.2997693071580983  0.1358477948508019  1.0000
  H   H60       1.0  0.5894235095906293  0.7002306933943202  0.8641522048763937  1.0000
  H   H61       1.0  0.4461221888304389  0.09584167182803588  0.9993773972586237  1.0000
  H   H62       1.0  0.5538778110337546  0.9041583278785884  0.0006226032311116842  1.0000
  H   H63       1.0  0.29982679800938405  0.11653007932719878  0.26249253626641905  1.0000
  H   H64       1.0  0.7001732018548094  0.8834699203794255  0.7375074642233164  1.0000
  H   H65       1.0  0.4024630322563211  0.3305877886893238  0.9436547895108407  1.0000
  H   H66       1.0  0.5975369676078723  0.6694122110173005  0.056345210978894784  1.0000
  H   H67       1.0  0.702568567026923  0.19334850293580474  0.9087794690046885  1.0000
  H   H68       1.0  0.2974314331210351  0.8066514968483793  0.09122053072405056  1.0000
  H   H69       1.0  0.6495265458586016  0.05699125839341135  0.6342604935041349  1.0000
  H   H70       1.0  0.35047345428935683  0.9430087413907725  0.36573950622460427  1.0000
  H   H71       1.0  0.1590454865436887  0.44436506285034905  0.056380150375046414  1.0000
  H   H72       1.0  0.8409545136042693  0.555634936933835  0.9436198493536927  1.0000
  H   H73       1.0  0.9303015212474615  0.5149201245637753  0.2287192328365936  1.0000
  H   H74       1.0  0.069698478616732  0.48507987514284906  0.7712807676531417  1.0000
  H   H75       1.0  0.9978748385859697  0.15379274649731772  0.2542723737502049  1.0000
  H   H76       1.0  0.002125161561988446  0.8462072532868663  0.7457276259785343  1.0000
  H   H77       1.0  0.7742746136910807  0.9678008552703022  0.998659886037176  1.0000
  H   H78       1.0  0.22572538617311266  0.032199144436322075  0.0013401144525594503  1.0000
  H   H79       1.0  0.9388895960325783  0.01860013175316432  0.8363536710096522  1.0000
  H   H80       1.0  0.06111040383183186  0.9813998687992541  0.16364632871754337  1.0000
  H   H81       1.0  0.8369140477038435  0.9475974040158844  0.16203525902933857  1.0000
  H   H82       1.0  0.16308595216034988  0.05240259569073993  0.8379647414603968  1.0000
  B   B1        1.0  0.08705228049816177  0.2467749051123641  0.3610670172532562  1.0000
  B   B2        1.0  0.9129477196497965  0.7532250946718199  0.6389329824754829  1.0000
  B   B3        1.0  0.18732822475391184  0.4205294807445031  0.24388998571464546  1.0000
  B   B4        1.0  0.8126717753940463  0.5794705190396808  0.7561100140140936  1.0000
  B   B5        1.0  0.4567054649453275  0.08171519132704456  0.8106639079933871  1.0000
  B   B6        1.0  0.5432945349188658  0.9182848083795798  0.18933609249634828  1.0000
  B   B7        1.0  0.5829134496139948  0.290431355730399  0.7711538891019589  1.0000
  B   B8        1.0  0.4170865499666505  0.7095686447444598  0.22884611138623304  1.0000
  B   B9        1.0  0.1770696187576179  0.2569879891569716  0.14366288579543204  1.0000
  B   B10       1.0  0.8229303813903404  0.7430120106272124  0.8563371139333071  1.0000
  B   B11       1.0  0.6247108251750381  0.07474907595176253  0.8225241058634152  1.0000
  B   B12       1.0  0.3752891749729202  0.9252509238324214  0.17747589386532406  1.0000
  B   B13       1.0  0.06412923008151232  0.3814371160356925  0.3536883689943018  1.0000
  B   B14       1.0  0.935870769782898  0.618562884516726  0.6463116307328938  1.0000
  B   B15       1.0  0.41464071933311997  0.18535250426166608  0.7194153435779139  1.0000
  B   B16       1.0  0.5853592805310734  0.8146474954449583  0.2805846569118215  1.0000
  B   B17       1.0  0.34573515935709354  0.20209721779118384  0.8501016995003825  1.0000
  B   B18       1.0  0.6542648405073166  0.7979027827612348  0.1498983002268132  1.0000
  B   B19       1.0  0.41037382837879227  0.3005525095665736  0.7629482049080215  1.0000
  B   B20       1.0  0.5896261717691659  0.6994474902176104  0.2370517948207176  1.0000
  B   B21       1.0  0.23478448370321317  0.3015163297840833  0.31753857506347705  1.0000
  B   B22       1.0  0.765215516161197  0.6984836707683353  0.6824614246637187  1.0000
  B   B23       1.0  0.29093601545613584  0.3081358036434534  0.18332919383446428  1.0000
  B   B24       1.0  0.7090639844080575  0.6918641960631711  0.8166708066552711  1.0000
  B   B25       1.0  0.47359049786049123  0.13422664630457148  0.9138951360471916  1.0000
  B   B26       1.0  0.5264095020037022  0.8657733534020529  0.08610486444254364  1.0000
  B   B27       1.0  0.22712080068767632  0.20130729286862242  0.25604167203045897  1.0000
  B   B28       1.0  0.772879199176517  0.798692706838002  0.7439583284592763  1.0000
  B   B29       1.0  0.4489158834093916  0.26993766180545126  0.882213034010567  1.0000
  B   B30       1.0  0.5510841177101229  0.7300623379785416  0.11778696571910138  1.0000
  B   B31       1.0  0.6200838881593704  0.1898404491294648  0.8664858052110667  1.0000
  B   B32       1.0  0.3799161119885879  0.810159550654719  0.13351419451767252  1.0000
  B   B33       1.0  0.5901384213051591  0.10926336371736939  0.7015461862955683  1.0000
  B   B34       1.0  0.40986157981435556  0.8907366360666233  0.2984538134341002  1.0000
  B   B35       1.0  0.1536090774179512  0.39189305725849555  0.13511361353108922  1.0000
  B   B36       1.0  0.8463909224462423  0.6081069424481287  0.8648863869586463  1.0000
  B   B37       1.0  0.012553897280107798  0.43604553578257343  0.24029453899508238  1.0000
  B   B38       1.0  0.9874461025843023  0.5639544647698449  0.7597054607321133  1.0000
  B   B39       1.0  0.05232676313808351  0.2198361671379828  0.25299167733553246  1.0000
  B   B40       1.0  0.9476732364425617  0.7801638333368762  0.7470083231526595  1.0000
  C   C1        1.0  0.7346340658075562  0.2564096910924644  0.3851029896398562  1.0000
  C   C2        1.0  0.2653659340566373  0.7435903086141599  0.6148970108498792  1.0000
  C   C3        1.0  0.5671616464231315  0.4646946110476262  0.6092970811784729  1.0000
  C   C4        1.0  0.4328383534410618  0.535305388658998  0.39070291931126255  1.0000
  C   C5        1.0  0.5649753512903649  0.15369921210597548  0.48195673646751946  1.0000
  C   C6        1.0  0.43502464857382855  0.8463007876006489  0.518043264022216  1.0000
  C   C7        1.0  0.5514342214071335  0.24269071073925724  0.6735095218493515  1.0000
  C   C8        1.0  0.44856577845727674  0.7573092898131613  0.3264904778778442  1.0000
  C   C9        1.0  0.6842976576412702  0.17123683686877614  0.7418075336148355  1.0000
  C   C10       1.0  0.3157023425066881  0.8287631629154077  0.2581924661139036  1.0000
  C   C11       1.0  0.807200769955171  0.33387800828903735  0.37926978109463555  1.0000
  C   C12       1.0  0.1927992301927871  0.6661219914951467  0.6207302186341037  1.0000
  C   C13       1.0  0.6082651747089545  0.2856773967043733  0.5659444984402603  1.0000
  C   C14       1.0  0.3917348254390037  0.7143226030798108  0.43405550128847886  1.0000
  C   C15       1.0  0.740963309890445  0.40851948665639093  0.4504886041640139  1.0000
  C   C16       1.0  0.2590366902575132  0.5914805131277929  0.5495113955647253  1.0000
  C   C17       1.0  0.6977514840897293  0.5823604160531591  0.49953897638430594  1.0000
  C   C18       1.0  0.3022485160582288  0.4176395837310247  0.5004610233444332  1.0000
  C   C19       1.0  0.6382611361010884  0.38477820289040787  0.5440313659810238  1.0000
  C   C20       1.0  0.361738863763322  0.6152217976620106  0.4559686337461718  1.0000
  C   C21       1.0  0.6369545903716007  0.23006818847248997  0.4805754564322464  1.0000
  C   C22       1.0  0.3630454094928095  0.7699318120799284  0.5194245432949492  1.0000
  C   C23       1.0  0.7674144079801377  0.5089136766164646  0.4333928665981144  1.0000
  C   C24       1.0  0.23258559188427258  0.49108632393595386  0.5666071331290812  1.0000
  C   C25       1.0  0.8366979828534085  0.158586734111785  0.6887228885856634  1.0000
  C   C26       1.0  0.16330201701078498  0.8414132655948394  0.31127711190407176  1.0000
  C   C27       1.0  0.9059811486898733  0.35363451924117867  0.12288656835320573  1.0000
  C   C28       1.0  0.0940188514580849  0.6463654805430052  0.8771134313755334  1.0000
  C   C29       1.0  0.956388500843398  0.3298135594941837  0.3136945267205626  1.0000
  C   C30       1.0  0.04361149930456023  0.6701864402900003  0.6863054730081767  1.0000
  C   C31       1.0  0.6699849172293632  0.13780224639270985  0.30314137066494495  1.0000
  C   C32       1.0  0.3300150826348303  0.8621977533139145  0.6968586298247904  1.0000
  C   C33       1.0  0.12943415083523327  0.1214494739247064  0.6100254334126041  1.0000
  C   C34       1.0  0.870565849029177  0.878550526627712  0.38997456631459154  1.0000
  C   C35       1.0  0.5785812080211181  0.10980037149805075  0.39641798592337885  1.0000
  C   C36       1.0  0.4214187918432922  0.8901996290543677  0.6035820138038167  1.0000
  C   C37       1.0  0.7466436602104523  0.20728889691333427  0.2990457545534007  1.0000
  C   C38       1.0  0.2533563409090624  0.7927111028706586  0.7009542451762677  1.0000
  C   C39       1.0  0.059431106323635886  0.04875142037409453  0.6052073926246075  1.0000
  C   C40       1.0  0.9405688938243223  0.9512485794100894  0.3947926071041316  1.0000
  C   C41       1.0  0.9139847634821101  0.06725294975099581  0.644080242184697  1.0000
  C   C42       1.0  0.08601523638230003  0.9327470508014227  0.3559197575424986  1.0000
  C   C43       1.0  0.5953197728384111  0.5601607526736478  0.5889366129274368  1.0000
  C   C44       1.0  0.404680227025999  0.4398392478787706  0.4110633867997588  1.0000
  C   C45       1.0  0.01402542722663408  0.3365280389435693  0.18001631732996834  1.0000
  C   C46       1.0  0.9859745729213244  0.6634719608406144  0.819983682398771  1.0000
  C   C47       1.0  0.05325989083112232  0.21324725041334502  0.6525487960285586  1.0000
  C   C48       1.0  0.9467401093168358  0.7867527493708389  0.3474512037001805  1.0000
  C   C49       1.0  0.9077471227472107  0.23199576203741049  0.6916371599031912  1.0000
  C   C50       1.0  0.09225287740074756  0.7680042377467734  0.308362839825548  1.0000
  C   C51       1.0  0.9329802362419897  0.2948861750893915  0.042348199532794936  1.0000
  C   C52       1.0  0.06701976362242071  0.7051138254630268  0.9576518001944007  1.0000
  C   C53       1.0  0.775263206765719  0.42405164557592184  0.1511124782180597  1.0000
  C   C54       1.0  0.2247367933822392  0.575948354208262  0.8488875215106795  1.0000
  C   C55       1.0  0.8306841984038785  0.3058344094412631  0.9918693763122639  1.0000
  C   C56       1.0  0.16931580117676684  0.694165591033596  0.00813062417592795  1.0000
  C   C57       1.0  0.6721899264668425  0.4329633928468209  0.10187180570133038  1.0000
  C   C58       1.0  0.3278100736811157  0.567036606937363  0.8981281940274088  1.0000
  C   C59       1.0  0.6993532161173304  0.37376279615935964  0.02216050993257364  1.0000
  C   C60       1.0  0.3006467840306279  0.6262372036248243  0.9778394897961655  1.0000
  C   C61       1.0  0.8732891053252051  0.9817461143341926  0.9991988336413905  1.0000
  C   C62       1.0  0.1267108948227532  0.018253885449991448  0.0008011660873487665  1.0000
  C   C63       1.0  0.9654339098750756  0.010537702199538741  0.9081257679018608  1.0000
  C   C64       1.0  0.034566090272882634  0.9894622975846452  0.0918742318268783  1.0000
  C   C65       1.0  0.9080796274415689  0.9709825647857799  0.09103085917923695  1.0000
  C   C66       1.0  0.09192037242262463  0.029017434920844423  0.9089691413104984  1.0000
