data_image0
_chemical_formula_structural       H68C72N12O16
_chemical_formula_sum              "H68 C72 N12 O16"
_cell_length_a       12.492001334687128
_cell_length_b       34.192049281775674
_cell_length_c       3.7600475675424474
_cell_angle_alpha    90.0
_cell_angle_beta     90.0
_cell_angle_gamma    90.0

_space_group_name_H-M_alt    "P 1"
_space_group_IT_number       1

loop_
  _space_group_symop_operation_xyz
  'x, y, z'

loop_
  _atom_site_type_symbol
  _atom_site_label
  _atom_site_symmetry_multiplicity
  _atom_site_fract_x
  _atom_site_fract_y
  _atom_site_fract_z
  _atom_site_occupancy
  H   H1        1.0  0.14333964606839733  0.6763662785876459  0.1397715615452961  1.0000
  H   H2        1.0  0.35666035334374135  0.3236337213604218  0.6397715605423239  1.0000
  H   H3        1.0  0.8566603535563923  0.17636627861361198  0.8602284391083002  1.0000
  H   H4        1.0  0.6433396462810482  0.8236337213344557  0.3602284401112724  1.0000
  H   H5        1.0  0.8566603535563923  0.3236337213604218  0.8602284391083002  1.0000
  H   H6        1.0  0.6433396462810482  0.6763662785876459  0.3602284401112724  1.0000
  H   H7        1.0  0.14333964606839733  0.8236337213344557  0.1397715615452961  1.0000
  H   H8        1.0  0.35666035334374135  0.17636627861361198  0.6397715605423239  1.0000
  H   H9        1.0  0.1571911359429246  0.5857593970149976  0.5294652645315306  1.0000
  H   H10       1.0  0.3428088642697263  0.41424060293307  0.029465262874962095  1.0000
  H   H11       1.0  0.842808863681865  0.08575939704096376  0.4705347361220656  1.0000
  H   H12       1.0  0.6571911361555756  0.9142406029071038  0.9705347351190933  1.0000
  H   H13       1.0  0.842808863681865  0.41424060293307  0.4705347361220656  1.0000
  H   H14       1.0  0.6571911361555756  0.5857593970149976  0.9705347351190933  1.0000
  H   H15       1.0  0.1571911359429246  0.9142406029071038  0.5294652645315306  1.0000
  H   H16       1.0  0.3428088642697263  0.08575939704096376  0.029465262874962095  1.0000
  H   H17       1.0  0.22682037602191513  0.5221993309864796  0.7584100835894033  1.0000
  H   H18       1.0  0.2731796241907358  0.4778006689615879  0.2584100819328348  1.0000
  H   H19       1.0  0.7731796236028745  0.022199331012445863  0.2415899170641929  1.0000
  H   H20       1.0  0.726820376234566  0.9778006689356217  0.7415899160612206  1.0000
  H   H21       1.0  0.7731796236028745  0.4778006689615879  0.2415899170641929  1.0000
  H   H22       1.0  0.726820376234566  0.5221993309864796  0.7415899160612206  1.0000
  H   H23       1.0  0.22682037602191513  0.9778006689356217  0.7584100835894033  1.0000
  H   H24       1.0  0.2731796241907358  0.022199331012445863  0.2584100819328348  1.0000
  H   H25       1.0  0.4228762196279661  0.5090852913363615  0.7550340199168107  1.0000
  H   H26       1.0  0.07712378058468482  0.49091470861170605  0.2550340209197831  1.0000
  H   H27       1.0  0.5771237807973357  0.009085291362327712  0.24496598073678544  1.0000
  H   H28       1.0  0.9228762190401048  0.9909147085857398  0.7449659797338132  1.0000
  H   H29       1.0  0.5771237807973357  0.49091470861170605  0.24496598073678544  1.0000
  H   H30       1.0  0.9228762190401048  0.5090852913363615  0.7449659797338132  1.0000
  H   H31       1.0  0.4228762196279661  0.9909147085857398  0.7550340199168107  1.0000
  H   H32       1.0  0.07712378058468482  0.009085291362327712  0.2550340209197831  1.0000
  H   H33       1.0  0.5485759652435735  0.5596802982557643  0.520863931857131  1.0000
  H   H34       1.0  0.9514240345938672  0.44031970169230333  0.02086393286010321  1.0000
  H   H35       1.0  0.4514240343812161  0.05968029828173045  0.4791360687964653  1.0000
  H   H36       1.0  0.04857596503092257  0.940319701666337  0.9791360677934929  1.0000
  H   H37       1.0  0.4514240343812161  0.44031970169230333  0.4791360687964653  1.0000
  H   H38       1.0  0.04857596503092257  0.5596802982557643  0.9791360677934929  1.0000
  H   H39       1.0  0.5485759652435735  0.940319701666337  0.520863931857131  1.0000
  H   H40       1.0  0.9514240345938672  0.05968029828173045  0.02086393286010321  1.0000
  H   H41       1.0  0.4786115771056107  0.6230507927278486  0.3027587230084021  1.0000
  H   H42       1.0  0.021388423107040262  0.376949207220219  0.8027587246649707  1.0000
  H   H43       1.0  0.5213884233196912  0.12305079275381478  0.6972412749856532  1.0000
  H   H44       1.0  0.9786115773182616  0.8769492071942528  0.19724127598862556  1.0000
  H   H45       1.0  0.5213884233196912  0.376949207220219  0.6972412749856532  1.0000
  H   H46       1.0  0.9786115773182616  0.6230507927278486  0.19724127598862556  1.0000
  H   H47       1.0  0.4786115771056107  0.8769492071942528  0.3027587230084021  1.0000
  H   H48       1.0  0.021388423107040262  0.12305079275381478  0.8027587246649707  1.0000
  H   H49       1.0  0.2748587298390643  0.7239447830695952  0.29955372366104643  1.0000
  H   H50       1.0  0.22514126957307443  0.2760552168784724  0.7995537226580742  1.0000
  H   H51       1.0  0.7251412697857254  0.22394478309556143  0.7004462769925498  1.0000
  H   H52       1.0  0.7748587300517152  0.7760552168525062  0.20044627533598128  1.0000
  H   H53       1.0  0.7251412697857254  0.2760552168784724  0.7004462769925498  1.0000
  H   H54       1.0  0.7748587300517152  0.7239447830695952  0.20044627533598128  1.0000
  H   H55       1.0  0.2748587298390643  0.7760552168525062  0.29955372366104643  1.0000
  H   H56       1.0  0.22514126957307443  0.22394478309556143  0.7995537226580742  1.0000
  H   H57       1.0  0.9710239364382686  0.6869566139903559  0.7666322854218675  1.0000
  H   H58       1.0  0.5289760641996842  0.31304338595771164  0.266632283765299  1.0000
  H   H59       1.0  0.028976063987033333  0.18695661401632213  0.2333677152317287  1.0000
  H   H60       1.0  0.4710239362256176  0.8130433859317454  0.7333677142287565  1.0000
  H   H61       1.0  0.028976063987033333  0.31304338595771164  0.2333677152317287  1.0000
  H   H62       1.0  0.4710239362256176  0.6869566139903559  0.7333677142287565  1.0000
  H   H63       1.0  0.9710239364382686  0.8130433859317454  0.7666322854218675  1.0000
  H   H64       1.0  0.5289760641996842  0.18695661401632213  0.266632283765299  1.0000
  H   H65       1.0  0.8797012956991678  0.7499999999610507  0.5939848525532748  1.0000
  H   H66       1.0  0.6202987041382728  0.24999999998701689  0.0939848535562471  1.0000
  H   H67       1.0  0.12029870392562186  0.24999999998701689  0.40601514544078066  1.0000
  H   H68       1.0  0.37970129628702903  0.7499999999610507  0.9060151470973492  1.0000
  C   C1        1.0  0.313386078428405  0.608272437507434  0.40337394481190375  1.0000
  C   C2        1.0  0.18661392178424596  0.39172756244063356  0.9033739438089314  1.0000
  C   C3        1.0  0.6866139219968969  0.10827243753340027  0.5966260558416925  1.0000
  C   C4        1.0  0.8133860778405437  0.8917275624146673  0.09662605684466477  1.0000
  C   C5        1.0  0.6866139219968969  0.39172756244063356  0.5966260558416925  1.0000
  C   C6        1.0  0.8133860778405437  0.608272437507434  0.09662605684466477  1.0000
  C   C7        1.0  0.313386078428405  0.8917275624146673  0.40337394481190375  1.0000
  C   C8        1.0  0.18661392178424596  0.10827243753340027  0.9033739438089314  1.0000
  C   C9        1.0  0.24268778787125628  0.5796258605816671  0.5294805037004429  1.0000
  C   C10       1.0  0.2573122123413947  0.42037413936640045  0.02948050204387438  1.0000
  C   C11       1.0  0.7573122117535334  0.07962586060763335  0.4705194969531533  1.0000
  C   C12       1.0  0.7426877880839072  0.9203741393404342  0.9705194986097219  1.0000
  C   C13       1.0  0.7573122117535334  0.42037413936640045  0.4705194969531533  1.0000
  C   C14       1.0  0.7426877880839072  0.5796258605816671  0.9705194986097219  1.0000
  C   C15       1.0  0.24268778787125628  0.9203741393404342  0.5294805037004429  1.0000
  C   C16       1.0  0.2573122123413947  0.07962586060763335  0.02948050204387438  1.0000
  C   C17       1.0  0.28201152046132355  0.5441896128149736  0.6566988676725364  1.0000
  C   C18       1.0  0.21798847895081516  0.4558103874255597  0.1566988660159679  1.0000
  C   C19       1.0  0.7179884791634661  0.04418961254847412  0.3433011329810598  1.0000
  C   C20       1.0  0.7820115206739745  0.9558103873995935  0.8433011319780875  1.0000
  C   C21       1.0  0.7179884791634661  0.4558103874255597  0.3433011329810598  1.0000
  C   C22       1.0  0.7820115206739745  0.5441896128149736  0.8433011319780875  1.0000
  C   C23       1.0  0.28201152046132355  0.9558103873995935  0.6566988676725364  1.0000
  C   C24       1.0  0.21798847895081516  0.04418961254847412  0.1566988660159679  1.0000
  C   C25       1.0  0.39206103720150337  0.5368273740697758  0.6545990671093322  1.0000
  C   C26       1.0  0.10793896221063533  0.4631726258782918  0.1545990681123046  1.0000
  C   C27       1.0  0.6079389624232863  0.036827374095742015  0.3454009335442639  1.0000
  C   C28       1.0  0.8920610374141543  0.9631726258523257  0.8454009325412917  1.0000
  C   C29       1.0  0.6079389624232863  0.4631726258782918  0.3454009335442639  1.0000
  C   C30       1.0  0.8920610374141543  0.5368273740697758  0.8454009325412917  1.0000
  C   C31       1.0  0.39206103720150337  0.9631726258523257  0.6545990671093322  1.0000
  C   C32       1.0  0.10793896221063533  0.036827374095742015  0.1545990681123046  1.0000
  C   C33       1.0  0.46260204231276086  0.5651884378366341  0.5254498073521237  1.0000
  C   C34       1.0  0.03739795789989009  0.4348115621114335  0.025449805695555133  1.0000
  C   C35       1.0  0.537397958112541  0.06518843786260027  0.4745501933014726  1.0000
  C   C36       1.0  0.9626020417248996  0.9348115620854673  0.9745501922985003  1.0000
  C   C37       1.0  0.537397958112541  0.4348115621114335  0.4745501933014726  1.0000
  C   C38       1.0  0.9626020417248996  0.5651884378366341  0.9745501922985003  1.0000
  C   C39       1.0  0.46260204231276086  0.9348115620854673  0.5254498073521237  1.0000
  C   C40       1.0  0.03739795789989009  0.06518843786260027  0.025449805695555133  1.0000
  C   C41       1.0  0.42368556392189655  0.6009072808324223  0.4025840292731646  1.0000
  C   C42       1.0  0.07631443629075442  0.39909271911564526  0.9025840309297332  1.0000
  C   C43       1.0  0.5763144357028931  0.10090728085838853  0.5974159713804316  1.0000
  C   C44       1.0  0.9236855641345475  0.899092719089679  0.09741596972386306  1.0000
  C   C45       1.0  0.5763144357028931  0.39909271911564526  0.5974159713804316  1.0000
  C   C46       1.0  0.9236855641345475  0.6009072808324223  0.09741596972386306  1.0000
  C   C47       1.0  0.42368556392189655  0.899092719089679  0.4025840292731646  1.0000
  C   C48       1.0  0.07631443629075442  0.10090728085838853  0.9025840309297332  1.0000
  C   C49       1.0  0.2726682249498263  0.6466142040156718  0.273982363652204  1.0000
  C   C50       1.0  0.22733177446231242  0.35338579593239583  0.7739823626492317  1.0000
  C   C51       1.0  0.7273317746749632  0.14661420404163797  0.7260176370013922  1.0000
  C   C52       1.0  0.7726682251624772  0.8533857959064296  0.22601763800436447  1.0000
  C   C53       1.0  0.7273317746749632  0.35338579593239583  0.7260176370013922  1.0000
  C   C54       1.0  0.7726682251624772  0.6466142040156718  0.22601763800436447  1.0000
  C   C55       1.0  0.2726682249498263  0.8533857959064296  0.273982363652204  1.0000
  C   C56       1.0  0.22733177446231242  0.14661420404163797  0.7739823626492317  1.0000
  C   C57       1.0  0.14261791143529534  0.7499999999610507  0.09793000843355505  1.0000
  C   C58       1.0  0.3573820887773556  0.24999999998701689  0.5979300074305828  1.0000
  C   C59       1.0  0.8573820889900065  0.24999999998701689  0.9020699922200411  1.0000
  C   C60       1.0  0.642617910847434  0.7499999999610507  0.4020699932230135  1.0000
  C   C61       1.0  0.005307305708966329  0.7153523735424895  0.8328542508431039  1.0000
  C   C62       1.0  0.49469269450368464  0.28464762640557817  0.33285425184607625  1.0000
  C   C63       1.0  0.9946926947163355  0.21535237356845563  0.1671457498104923  1.0000
  C   C64       1.0  0.5053073059216172  0.784647626379612  0.66714574880752  1.0000
  C   C65       1.0  0.9946926947163355  0.28464762640557817  0.1671457498104923  1.0000
  C   C66       1.0  0.5053073059216172  0.7153523735424895  0.66714574880752  1.0000
  C   C67       1.0  0.005307305708966329  0.784647626379612  0.8328542508431039  1.0000
  C   C68       1.0  0.49469269450368464  0.21535237356845563  0.33285425184607625  1.0000
  C   C69       1.0  0.9547742599803942  0.7499999999610507  0.7369106747261172  1.0000
  C   C70       1.0  0.5452257398570464  0.24999999998701689  0.2369106757290894  1.0000
  C   C71       1.0  0.045225739644395406  0.24999999998701689  0.2630893232679383  1.0000
  C   C72       1.0  0.45477425976774327  0.7499999999610507  0.7630893249245068  1.0000
  N   N1        1.0  0.09796129837114281  0.715079467407993  0.01075966441202297  1.0000
  N   N2        1.0  0.40203870184150814  0.2849205325400746  0.5107596660685915  1.0000
  N   N3        1.0  0.902038702054159  0.21507946743395923  0.9892403335820324  1.0000
  N   N4        1.0  0.5979612985837938  0.7849205325141084  0.4892403345850047  1.0000
  N   N5        1.0  0.902038702054159  0.2849205325400746  0.9892403335820324  1.0000
  N   N6        1.0  0.5979612985837938  0.715079467407993  0.4892403345850047  1.0000
  N   N7        1.0  0.09796129837114281  0.7849205325141084  0.01075966441202297  1.0000
  N   N8        1.0  0.40203870184150814  0.21507946743395923  0.5107596660685915  1.0000
  N   N9        1.0  0.23379926816771746  0.7499999999610507  0.28645471650348764  1.0000
  N   N10       1.0  0.2662007320449335  0.24999999998701689  0.7864547155005154  1.0000
  N   N11       1.0  0.7662007322575844  0.24999999998701689  0.7135452841501086  1.0000
  N   N12       1.0  0.7337992683803684  0.7499999999610507  0.21354528249354005  1.0000
  O   O1        1.0  0.3335705567393269  0.6745649952105529  0.21048892222320678  1.0000
  O   O2        1.0  0.1664294426728118  0.32543500473751463  0.7104889238797754  1.0000
  O   O3        1.0  0.6664294428854627  0.1745649952365192  0.7895110757708486  1.0000
  O   O4        1.0  0.8335705569519778  0.8254350047115484  0.28951107677382093  1.0000
  O   O5        1.0  0.6664294428854627  0.32543500473751463  0.7895110757708486  1.0000
  O   O6        1.0  0.8335705569519778  0.6745649952105529  0.28951107677382093  1.0000
  O   O7        1.0  0.3335705567393269  0.8254350047115484  0.21048892222320678  1.0000
  O   O8        1.0  0.1664294426728118  0.1745649952365192  0.7104889238797754  1.0000
  O   O9        1.0  0.16743152870087205  0.6482509239893361  0.23595973829125877  1.0000
  O   O10       1.0  0.3325684715117789  0.35174907595873145  0.7359597399478273  1.0000
  O   O11       1.0  0.8325684717244298  0.14825092401530238  0.7640402597027967  1.0000
  O   O12       1.0  0.6674315281130108  0.8517490759327653  0.2640402607057689  1.0000
  O   O13       1.0  0.8325684717244298  0.35174907595873145  0.7640402597027967  1.0000
  O   O14       1.0  0.6674315281130108  0.6482509239893361  0.2640402607057689  1.0000
  O   O15       1.0  0.16743152870087205  0.8517490759327653  0.23595973829125877  1.0000
  O   O16       1.0  0.3325684715117789  0.14825092401530238  0.7359597399478273  1.0000
