data_image0
_chemical_formula_structural       H40C52N4O12
_chemical_formula_sum              "H40 C52 N4 O12"
_cell_length_a       12.926699886520463
_cell_length_b       3.7658137831856227
_cell_length_c       21.850598047785258
_cell_angle_alpha    90.0
_cell_angle_beta     103.59949369461205
_cell_angle_gamma    90.0

_space_group_name_H-M_alt    "P 1"
_space_group_IT_number       1

loop_
  _space_group_symop_operation_xyz
  'x, y, z'

loop_
  _atom_site_type_symbol
  _atom_site_label
  _atom_site_symmetry_multiplicity
  _atom_site_fract_x
  _atom_site_fract_y
  _atom_site_fract_z
  _atom_site_occupancy
  H   H1        1.0  0.678056663511118  0.2602703496323381  0.4456010305560184  1.0000
  H   H2        1.0  0.3219433361706512  0.760270349209372  0.054398969037234984  1.0000
  H   H3        1.0  0.3219433360972471  0.7397296495217297  0.5543989693074521  1.0000
  H   H4        1.0  0.678056663437714  0.23972964994469584  0.9456010308262356  1.0000
  H   H5        1.0  0.7238632421773382  0.5172373149986925  0.2783437028839021  1.0000
  H   H6        1.0  0.2761367582954761  0.017237312766190054  0.2216562972798209  1.0000
  H   H7        1.0  0.2761367582269196  0.4827626868108439  0.7216562970930674  1.0000
  H   H8        1.0  0.7238632421087817  0.9827626863878779  0.7783437026971486  1.0000
  H   H9        1.0  0.9565341896175202  0.9513992927630109  0.257040979727218  1.0000
  H   H10       1.0  0.04346581086014166  0.45139929318597694  0.2429590199795344  1.0000
  H   H11       1.0  0.04346581078673759  0.048600706391056986  0.7429590202497516  1.0000
  H   H12       1.0  0.9565341895441163  0.5486007059680909  0.7570409799974351  1.0000
  H   H13       1.0  0.10728929940888068  0.07005257699621006  0.3484904766507923  1.0000
  H   H14       1.0  0.8927107010639337  0.5700525792287126  0.15150952351293068  1.0000
  H   H15       1.0  0.8927107009953773  0.9299474221578578  0.6515095233261773  1.0000
  H   H16       1.0  0.10728929934032413  0.42994742258082386  0.848490476464039  1.0000
  H   H17       1.0  0.09264281191301939  0.9097916937097582  0.4575358375087805  1.0000
  H   H18       1.0  0.9073571877639024  0.40979169147725575  0.0424641625414434  1.0000
  H   H19       1.0  0.9073571876953458  0.0902083080997782  0.54246416235469  1.0000
  H   H20       1.0  0.09264281184446287  0.5902083076768122  0.9575358373220271  1.0000
  H   H21       1.0  0.9256423339530925  0.6281921454965881  0.4722329434542412  1.0000
  H   H22       1.0  0.07435766572382921  0.12819214591955425  0.027767056595982727  1.0000
  H   H23       1.0  0.07435766565527269  0.37180785365747965  0.5277670564092293  1.0000
  H   H24       1.0  0.925642333884536  0.8718078532345136  0.9722329432674878  1.0000
  H   H25       1.0  0.3984582401881069  0.6367752783493915  0.2888339948025908  1.0000
  H   H26       1.0  0.601541760289555  0.13677527877235754  0.21116600490416162  1.0000
  H   H27       1.0  0.6015417602161509  0.3632247208046764  0.7111660051743788  1.0000
  H   H28       1.0  0.3984582401147029  0.8632247203817104  0.7888339950728079  1.0000
  H   H29       1.0  0.5562495754832583  0.9554851798742382  0.35280769471000206  1.0000
  H   H30       1.0  0.44375042419366345  0.4554851802972042  0.14719230534022193  1.0000
  H   H31       1.0  0.4437504241251069  0.04451481927982976  0.6471923051534685  1.0000
  H   H32       1.0  0.5562495754147018  0.5445148188568637  0.8528076945232486  1.0000
  H   H33       1.0  0.7433595108388826  0.424314324073745  0.5513035879814805  1.0000
  H   H34       1.0  0.25664048949197127  0.9243143236507788  0.9486964122657062  1.0000
  H   H35       1.0  0.2566404895653753  0.5756856750803229  0.44869641199548904  1.0000
  H   H36       1.0  0.7433595101115464  0.07568567550328896  0.05130358805473489  1.0000
  H   H37       1.0  0.7501403682924221  0.539436800903511  0.6646564801257473  1.0000
  H   H38       1.0  0.24985963124738647  0.03943680132647696  0.8353435195509697  1.0000
  H   H39       1.0  0.24985963131594296  0.4605632009060255  0.33534351973772325  1.0000
  H   H40       1.0  0.7501403683609787  0.9605632004830594  0.1646564803125007  1.0000
  C   C1        1.0  0.8497038670107473  0.6208559197587797  0.3739293917238658  1.0000
  C   C2        1.0  0.1502961334669147  0.12085592018174585  0.12607060798288658  1.0000
  C   C3        1.0  0.15029613339351064  0.3791440793952881  0.6260706082531037  1.0000
  C   C4        1.0  0.8497038669373431  0.8791440789723219  0.873929391994083  1.0000
  C   C5        1.0  0.8591500378822937  0.710108038783018  0.3124834315396142  1.0000
  C   C6        1.0  0.14084996259052068  0.21010803920598406  0.18751656862410881  1.0000
  C   C7        1.0  0.1408499625219642  0.2898919603710499  0.6875165684373554  1.0000
  C   C8        1.0  0.8591500378137371  0.7898919599480838  0.8124834313528606  1.0000
  C   C9        1.0  0.9519757161076274  0.8763810267878356  0.3044180241264422  1.0000
  C   C10       1.0  0.048024283574141895  0.3763810272108017  0.19558197546681114  1.0000
  C   C11       1.0  0.04802428350073783  0.12361897236623223  0.6955819757370284  1.0000
  C   C12       1.0  0.9519757160342233  0.6236189719432662  0.8044180243966593  1.0000
  C   C13       1.0  0.03533037138953646  0.9442868141482711  0.3560033467754733  1.0000
  C   C14       1.0  0.9646696282873853  0.44428681457123714  0.14399665327475067  1.0000
  C   C15       1.0  0.9646696282188287  0.05571318500579675  0.6439966530879971  1.0000
  C   C16       1.0  0.03533037131613238  0.5557131845828307  0.8560033470456906  1.0000
  C   C17       1.0  0.027278409920126267  0.8548527689748805  0.4170404987465602  1.0000
  C   C18       1.0  0.9727215897616429  0.35485276939784655  0.08295950084669315  1.0000
  C   C19       1.0  0.972721589688239  0.14514723017918738  0.5829595011169103  1.0000
  C   C20       1.0  0.027278409846722196  0.6451472297562213  0.9170404990167773  1.0000
  C   C21       1.0  0.9345420479926398  0.6975515947519486  0.42545205563164584  1.0000
  C   C22       1.0  0.06545795248017462  0.19755159517491466  0.07454794453207718  1.0000
  C   C23       1.0  0.0654579524116181  0.3024484070575878  0.5745479443453237  1.0000
  C   C24       1.0  0.9345420479240831  0.8024484066346218  0.9254520554448924  1.0000
  C   C25       1.0  0.752428998269389  0.4454666604839157  0.3818483603918512  1.0000
  C   C26       1.0  0.24757100220342534  0.9454666600609496  0.11815163977187174  1.0000
  C   C27       1.0  0.24757100213486882  0.5545333386701522  0.6181516395851183  1.0000
  C   C28       1.0  0.7524289982008326  0.054533339093118235  0.8818483602050978  1.0000
  C   C29       1.0  0.40334968963704726  0.6968988274773223  0.338200636594444  1.0000
  C   C30       1.0  0.5966503108357671  0.1968988279002884  0.16179936356927907  1.0000
  C   C31       1.0  0.5966503107672106  0.3031011716767455  0.6617993633825255  1.0000
  C   C32       1.0  0.40334968956364314  0.8031011712537794  0.838200636864661  1.0000
  C   C33       1.0  0.4911641191705751  0.8687453836956602  0.37315337002557747  1.0000
  C   C34       1.0  0.5088358813070869  0.36874538411862634  0.1268466296811749  1.0000
  C   C35       1.0  0.5088358812336828  0.13125461545840758  0.6268466299513921  1.0000
  C   C36       1.0  0.491164119097171  0.6312546150354414  0.8731533702957947  1.0000
  C   C37       1.0  0.4973292400991013  0.9397204545272031  0.4377906940025842  1.0000
  C   C38       1.0  0.502670759582668  0.4397204549501692  0.06220930559066922  1.0000
  C   C39       1.0  0.5026707595092639  0.06027954462686472  0.5622093058608864  1.0000
  C   C40       1.0  0.49732924002569723  0.5602795442038986  0.9377906942728014  1.0000
  C   C41       1.0  0.5885154440201398  0.16958037671734816  0.534200717308383  1.0000
  C   C42       1.0  0.41148455551966895  0.669580376294382  0.965799282368334  1.0000
  C   C43       1.0  0.4114845555882255  0.8304196250921883  0.46579928255508746  1.0000
  C   C44       1.0  0.5885154440886963  0.3304196228596858  0.034200717495136444  1.0000
  C   C45       1.0  0.6786544525583664  0.3434127480690286  0.5724145397517614  1.0000
  C   C46       1.0  0.32134554777248736  0.8434127476460626  0.9275854604954252  1.0000
  C   C47       1.0  0.3213455478410439  0.6565872510850391  0.4275854606821786  1.0000
  C   C48       1.0  0.6786544526317705  0.15658725150800526  0.07241453948154432  1.0000
  C   C49       1.0  0.6821095064715705  0.4056746450982697  0.6347670929559722  1.0000
  C   C50       1.0  0.3178904938641308  0.9056746446753037  0.8652329068342439  1.0000
  C   C51       1.0  0.31789049393268737  0.5943253540557981  0.3652329070209973  1.0000
  C   C52       1.0  0.682109506540127  0.09432535447876421  0.1347670931427257  1.0000
  N   N1        1.0  0.5830043847610131  0.10729360856983294  0.47280182540911647  1.0000
  N   N2        1.0  0.41699561491590853  0.6072936108023355  0.027198174641107464  1.0000
  N   N3        1.0  0.416995614847352  0.892706390584235  0.527198174454354  1.0000
  N   N4        1.0  0.5830043846924567  0.39270639100720095  0.9728018252223631  1.0000
  O   O1        1.0  0.6779581772843384  0.36532281711397296  0.3356631803294474  1.0000
  O   O2        1.0  0.3220418223925833  0.8653228166910069  0.16433681972077654  1.0000
  O   O3        1.0  0.3220418223240268  0.6346771846955634  0.6643368195340231  1.0000
  O   O4        1.0  0.6779581772109343  0.13467718511852947  0.8356631805996644  1.0000
  O   O5        1.0  0.748868764245163  0.37906656626882834  0.4407843422738967  1.0000
  O   O6        1.0  0.25113123622765127  0.8790665658458623  0.05921565788982633  1.0000
  O   O7        1.0  0.2511312361590947  0.6209334328852396  0.5592156577030729  1.0000
  O   O8        1.0  0.7488687641766066  0.12093343330820562  0.9407843420871432  1.0000
  O   O9        1.0  0.7809402984309952  0.6387215323125388  0.26110564191478913  1.0000
  O   O10       1.0  0.21905970204666658  0.13872153273550492  0.2388943577919633  1.0000
  O   O11       1.0  0.21905970197326252  0.361278466841529  0.7388943580621804  1.0000
  O   O12       1.0  0.7809402983575913  0.8612784664185629  0.7611056421850062  1.0000
