data_image0
_chemical_formula_structural       H32C24N4O10
_chemical_formula_sum              "H32 C24 N4 O10"
_cell_length_a       4.9366214634037915
_cell_length_b       5.300786216792997
_cell_length_c       23.73698504227013
_cell_angle_alpha    92.49538171751486
_cell_angle_beta     91.85229262614398
_cell_angle_gamma    92.58063524207516

_space_group_name_H-M_alt    "P 1"
_space_group_IT_number       1

loop_
  _space_group_symop_operation_xyz
  'x, y, z'

loop_
  _atom_site_type_symbol
  _atom_site_label
  _atom_site_symmetry_multiplicity
  _atom_site_fract_x
  _atom_site_fract_y
  _atom_site_fract_z
  _atom_site_occupancy
  H   H1        1.0  0.27461129382964605  0.6999468669291568  0.36349328872803144  1.0000
  H   H2        1.0  0.72538870607533  0.30005313392543953  0.6365067114062544  1.0000
  H   H3        1.0  0.4891436248109833  0.5042674195700665  0.3242071078106878  1.0000
  H   H4        1.0  0.5108563750939926  0.49573258128452974  0.675792892323598  1.0000
  H   H5        1.0  0.46226897572208164  0.10694454214974485  0.2951644413301535  1.0000
  H   H6        1.0  0.5377310241828944  0.8930554587048513  0.7048355588041324  1.0000
  H   H7        1.0  0.48391786230359213  0.7755212880786682  0.21666355444417934  1.0000
  H   H8        1.0  0.5160821375295596  0.22447871089494104  0.7833364452480006  1.0000
  H   H9        1.0  0.14515118346210673  0.7672958757354517  0.1374471633507051  1.0000
  H   H10       1.0  0.8548488163546255  0.2327041232288278  0.8625528367625389  1.0000
  H   H11       1.0  0.7783547132514952  0.39712490161378183  0.20363069321690594  1.0000
  H   H12       1.0  0.2216452866534809  0.6028750992408145  0.7963693069173798  1.0000
  H   H13       1.0  0.7341635262058779  0.08609329978201123  0.11773467675821236  1.0000
  H   H14       1.0  0.2658364736272738  0.9139066991915981  0.8822653229339676  1.0000
  H   H15       1.0  0.09927419681005503  0.10934050337430838  0.040913696653777226  1.0000
  H   H16       1.0  0.9007258031113403  0.8906594974896176  0.9590863030594442  1.0000
  H   H17       1.0  0.3499882548145977  0.2179451796907578  0.9968429349523287  1.0000
  H   H18       1.0  0.6500117450021344  0.7820548192735216  0.0031570651609154404  1.0000
  H   H19       1.0  0.22993329503840823  0.6747064547654059  0.027271486480891328  1.0000
  H   H20       1.0  0.7700667047783241  0.3252935441988736  0.9727285136323527  1.0000
  H   H21       1.0  0.9561766445436708  0.5420653039242889  0.06338065286565212  1.0000
  H   H22       1.0  0.04382335537772464  0.4579346969396372  0.9366193468475695  1.0000
  H   H23       1.0  0.8376202039496808  0.8299971526422375  0.33867763329437384  1.0000
  H   H24       1.0  0.16237979588347082  0.17000284633137183  0.661322366397806  1.0000
  H   H25       1.0  0.6782459321387411  0.1923144188834013  0.46167735948249944  1.0000
  H   H26       1.0  0.32175406776623494  0.8076855819711951  0.5383226406517863  1.0000
  H   H27       1.0  0.7657487935381461  0.41106609801390653  0.4113805906640239  1.0000
  H   H28       1.0  0.23425120638324926  0.5889339028500196  0.5886194090491977  1.0000
  H   H29       1.0  0.22890426185525728  0.48816147552214345  0.45787341414962857  1.0000
  H   H30       1.0  0.7710957380497186  0.5118385253324529  0.5421265859846571  1.0000
  H   H31       1.0  0.15338983386634164  0.2560384607320749  0.506675174882153  1.0000
  H   H32       1.0  0.8466101680655788  0.7439615401281395  0.4933248252691355  1.0000
  C   C1        1.0  0.1183133351602198  0.2804680072062623  0.2557158506831426  1.0000
  C   C2        1.0  0.8816866647611756  0.7195319936576636  0.7442841490300789  1.0000
  C   C3        1.0  0.31997309447854316  0.10340784644739441  0.2590452698114986  1.0000
  C   C4        1.0  0.6800269054264328  0.8965921544072017  0.7409547303227872  1.0000
  C   C5        1.0  0.33107679806777074  0.9170764831955892  0.21618128170477527  1.0000
  C   C6        1.0  0.6689232017489616  0.08292351576869031  0.7838187184084688  1.0000
  C   C7        1.0  0.14045035432113262  0.9114989022313983  0.17152612916908136  1.0000
  C   C8        1.0  0.8595496455120191  0.08850109674221111  0.8284738705230986  1.0000
  C   C9        1.0  0.9371047366024994  0.26273130853083226  0.20904273966026315  1.0000
  C   C10       1.0  0.06289526321423282  0.7372686904334472  0.7909572604529809  1.0000
  C   C11       1.0  0.08567263256268007  0.482115678761978  0.29986381197873496  1.0000
  C   C12       1.0  0.9143273673422959  0.5178843220926183  0.7001361881555509  1.0000
  C   C13       1.0  0.44265396521909134  0.27998945416771137  0.08444271693749637  1.0000
  C   C14       1.0  0.557346034597641  0.7200105447965681  0.9155572831757478  1.0000
  C   C15       1.0  0.2420800641287512  0.27127706295227644  0.03508319472065698  1.0000
  C   C16       1.0  0.7579199356879811  0.7287229360120031  0.9649168053925872  1.0000
  C   C17       1.0  0.08694296378266261  0.5093328123492254  0.027331456236667304  1.0000
  C   C18       1.0  0.9130570361387328  0.4906671885147006  0.9726685434765542  1.0000
  C   C19       1.0  0.9537790898080295  0.060611847631475306  0.4030016805547897  1.0000
  C   C20       1.0  0.0462209100969466  0.939388153223121  0.5969983195794961  1.0000
  C   C21       1.0  0.8525996413188606  0.27345394330588296  0.4394392316567621  1.0000
  C   C22       1.0  0.14740035849787167  0.7265460556583966  0.5605607684564821  1.0000
  C   C23       1.0  0.06250059934473064  0.40008000167346613  0.4809932127724949  1.0000
  C   C24       1.0  0.9374994005602454  0.59991999918113  0.5190067873617908  1.0000
  N   N1        1.0  0.9479786107357194  0.08202442220168621  0.1682137592650043  1.0000
  N   N2        1.0  0.05202138908101288  0.9179755767625934  0.8317862408482399  1.0000
  N   N3        1.0  0.29784353137484204  0.5546859542438018  0.3337183090777212  1.0000
  N   N4        1.0  0.7021564685301339  0.44531404661079454  0.6662816910565647  1.0000
  O   O1        1.0  0.8568671738485764  0.580133375678582  0.3046198803035947  1.0000
  O   O2        1.0  0.14313282607281902  0.419866625185344  0.695380119409627  1.0000
  O   O3        1.0  0.5997950371251495  0.08159456317172391  0.08260734376733575  1.0000
  O   O4        1.0  0.4002049627080022  0.9184054358018855  0.9173926559248442  1.0000
  O   O5        1.0  0.459333961581654  0.44655410823544167  0.12264634019242254  1.0000
  O   O6        1.0  0.5406660383233218  0.5534458926191547  0.8773536599418633  1.0000
  O   O7        1.0  0.7811261806777928  0.9922354612510615  0.3600713257482477  1.0000
  O   O8        1.0  0.21887381915535883  0.007764537722547838  0.6399286739439322  1.0000
  O   O9        1.0  0.16936660127599495  0.9564849863385133  0.41198143878485866  1.0000
  O   O10       1.0  0.8306333985407374  0.04351501262576618  0.5880185613283854  1.0000
