data_image0
_chemical_formula_structural       H80C56N8O20
_chemical_formula_sum              "H80 C56 N8 O20"
_cell_length_a       4.907085972460009
_cell_length_b       35.384016762229464
_cell_length_c       8.466755793329877
_cell_angle_alpha    90.0
_cell_angle_beta     95.10642663790135
_cell_angle_gamma    90.0

_space_group_name_H-M_alt    "P 1"
_space_group_IT_number       1

loop_
  _space_group_symop_operation_xyz
  'x, y, z'

loop_
  _atom_site_type_symbol
  _atom_site_label
  _atom_site_symmetry_multiplicity
  _atom_site_fract_x
  _atom_site_fract_y
  _atom_site_fract_z
  _atom_site_occupancy
  H   H1        1.0  0.5859694543229592  0.3536433300969182  0.5768973321468249  1.0000
  H   H2        1.0  0.4140305453245914  0.8536433300654143  0.9231026682711547  1.0000
  H   H3        1.0  0.4140305448021982  0.6463566701226877  0.42310266843253314  1.0000
  H   H4        1.0  0.5859694537939782  0.146356669871578  0.0768973311267796  1.0000
  H   H5        1.0  0.37248542677442875  0.32586542696611287  0.6895583649578463  1.0000
  H   H6        1.0  0.6275145749125133  0.8258654269346091  0.8104416343804494  1.0000
  H   H7        1.0  0.62751457439012  0.6741345732534929  0.3104416345418276  1.0000
  H   H8        1.0  0.37248542625203557  0.17413457300238327  0.18955836511922455  1.0000
  H   H9        1.0  0.4069221039710094  0.15648274296293113  0.7102986601169426  1.0000
  H   H10       1.0  0.5930778977225203  0.6564827429314274  0.7897013404027768  1.0000
  H   H11       1.0  0.5930778972001273  0.8435172569740612  0.28970134056415503  1.0000
  H   H12       1.0  0.40692210344861623  0.343517257005565  0.21029866027832084  1.0000
  H   H13       1.0  0.15124657840101824  0.20902562955755238  0.8282993441157064  1.0000
  H   H14       1.0  0.8487534212465323  0.7090256295260485  0.6717006563022734  1.0000
  H   H15       1.0  0.8487534207241394  0.79097437037944  0.17170065646365162  1.0000
  H   H16       1.0  0.15124657991801632  0.2909743704109438  0.3282993431974006  1.0000
  H   H17       1.0  0.2706871993018111  0.2753561692973295  0.7709182041218865  1.0000
  H   H18       1.0  0.7293128023917187  0.7753561692658256  0.7290817963978329  1.0000
  H   H19       1.0  0.7293128018693256  0.7246438309222764  0.22908179655921107  1.0000
  H   H20       1.0  0.270687198779418  0.22464383095378018  0.2709182042832648  1.0000
  H   H21       1.0  0.8857011827458459  0.23215930161916445  0.4829447027940941  1.0000
  H   H22       1.0  0.11429881789630975  0.7321593015876606  0.01705529686695814  1.0000
  H   H23       1.0  0.11429881637272385  0.7678406986004414  0.5170552966038404  1.0000
  H   H24       1.0  0.8857011832682389  0.26784069863194526  0.9829447026327157  1.0000
  H   H25       1.0  0.7907598827702005  0.3406221165050283  0.02784601879962334  1.0000
  H   H26       1.0  0.20924011582597596  0.8406221164735245  0.4721539807596894  1.0000
  H   H27       1.0  0.20924011635495698  0.659377883431964  0.9721539817797347  1.0000
  H   H28       1.0  0.7907598832925937  0.15937788346346785  0.5278460186382451  1.0000
  H   H29       1.0  0.031943362234624954  0.6602627210751968  0.5564851162172745  1.0000
  H   H30       1.0  0.9680566374129258  0.1602627211067006  0.9435148842007053  1.0000
  H   H31       1.0  0.9680566368905325  0.33973727886179556  0.44351488436208364  1.0000
  H   H32       1.0  0.03194336170564397  0.8397372788302917  0.056485115197229124  1.0000
  H   H33       1.0  0.26839727071862385  0.3925993248123454  0.7196481418318553  1.0000
  H   H34       1.0  0.731602728922339  0.8925993247808416  0.7803518574047009  1.0000
  H   H35       1.0  0.7316027283999459  0.607400675124647  0.2803518575660791  1.0000
  H   H36       1.0  0.2683972701962307  0.10740067515615076  0.21964814199323357  1.0000
  H   H37       1.0  0.3739546704470147  0.4021734379571713  0.91890567992241  1.0000
  H   H38       1.0  0.626045329200536  0.9021734379256674  0.5810943204955697  1.0000
  H   H39       1.0  0.6260453286781428  0.5978265619798211  0.08109432065694804  1.0000
  H   H40       1.0  0.37395466992462156  0.09782656201132489  0.41890568008378837  1.0000
  H   H41       1.0  0.9385643493011493  0.4388208561605278  0.9448502319652764  1.0000
  H   H42       1.0  0.061435650346401464  0.938820856129024  0.5551497684527035  1.0000
  H   H43       1.0  0.06143564981742049  0.5611791440590781  0.0551497674326581  1.0000
  H   H44       1.0  0.938564348778756  0.06117914409058185  0.44485023212665464  1.0000
  H   H45       1.0  0.8289828077591392  0.4284191574932109  0.7456292374790775  1.0000
  H   H46       1.0  0.17101719188841144  0.928419157461707  0.7543707629389024  1.0000
  H   H47       1.0  0.1710171913660183  0.5715808424437814  0.2543707631002806  1.0000
  H   H48       1.0  0.8289828092827252  0.07158084247528525  0.24562923774219528  1.0000
  H   H49       1.0  0.3463341571421492  0.47339246933322415  0.8568148569671469  1.0000
  H   H50       1.0  0.6536658425054014  0.9733924693017203  0.6431851434508329  1.0000
  H   H51       1.0  0.6536658440289873  0.5266075306037682  0.1431851437139507  1.0000
  H   H52       1.0  0.3463341566197561  0.026607530635272044  0.35681485712852523  1.0000
  H   H53       1.0  0.2467948571866894  0.4614946672032696  0.6583920576636555  1.0000
  H   H54       1.0  0.7532051424542735  0.9614946671717658  0.8416079415729006  1.0000
  H   H55       1.0  0.7532051439778594  0.5385053327337227  0.34160794183601845  1.0000
  H   H56       1.0  0.24679485666429624  0.03850533276522656  0.15839205782503377  1.0000
  H   H57       1.0  0.9153564879251893  0.5108124352149205  0.8705282944206816  1.0000
  H   H58       1.0  0.08464351376834046  0.010812435246424355  0.6294717060990377  1.0000
  H   H59       1.0  0.08464351324594731  0.4891875647220718  0.129471706260416  1.0000
  H   H60       1.0  0.9153564874027962  0.9891875646905679  0.3705282945820599  1.0000
  H   H61       1.0  0.8040151654569705  0.4974726523640416  0.6754811287738023  1.0000
  H   H62       1.0  0.1959848341839923  0.9974726523325378  0.8245188704627539  1.0000
  H   H63       1.0  0.19598483570757824  0.5025273475729507  0.32451887072587166  1.0000
  H   H64       1.0  0.8040151649345774  0.002527347604454542  0.17548112893518059  1.0000
  H   H65       1.0  0.32676981143190553  0.5431405515417546  0.7680987003986861  1.0000
  H   H66       1.0  0.6732301882156451  0.043140551573258405  0.7319013000192938  1.0000
  H   H67       1.0  0.6732301876932519  0.45685944839523773  0.23190130018067207  1.0000
  H   H68       1.0  0.3267698129554915  0.956859448363734  0.2680987006618038  1.0000
  H   H69       1.0  0.20750783072180864  0.5302215253308028  0.5739924763266413  1.0000
  H   H70       1.0  0.792492168925742  0.03022152536230661  0.9260075240913386  1.0000
  H   H71       1.0  0.792492170449328  0.4697784746061895  0.4260075243544562  1.0000
  H   H72       1.0  0.2075078301994155  0.9697784745746857  0.07399247648801964  1.0000
  H   H73       1.0  0.7628556439105701  0.567079850058711  0.6097987912934715  1.0000
  H   H74       1.0  0.23714435573698048  0.0670798500902148  0.8902012091245083  1.0000
  H   H75       1.0  0.23714435726056637  0.43292014987828137  0.390201209387626  1.0000
  H   H76       1.0  0.7628556433815892  0.9329201498467775  0.10979879027342622  1.0000
  H   H77       1.0  0.9127881767977001  0.5826969255228472  0.7937813153299642  1.0000
  H   H78       1.0  0.08721182284985055  0.08269692555435106  0.7062186850880157  1.0000
  H   H79       1.0  0.08721182232086956  0.41730307441414516  0.20621868406797017  1.0000
  H   H80       1.0  0.912788176275307  0.9173030743826414  0.29378131549134257  1.0000
  C   C1        1.0  0.45411438833004947  0.1859393014707993  0.6863367068245873  1.0000
  C   C2        1.0  0.5458856133568925  0.6859393014392955  0.8136632925137085  1.0000
  C   C3        1.0  0.5458856128344993  0.8140606984661931  0.3136632926750868  1.0000
  C   C4        1.0  0.4541143878076563  0.31406069849769686  0.18633670698596547  1.0000
  C   C5        1.0  0.3121037407690383  0.21511446428334807  0.7520077672691755  1.0000
  C   C6        1.0  0.6878962588785124  0.7151144642518442  0.7479922331488044  1.0000
  C   C7        1.0  0.6878962583561192  0.7848855359362578  0.24799223331018258  1.0000
  C   C8        1.0  0.3121037422860364  0.28488553596776156  0.25200776635086963  1.0000
  C   C9        1.0  0.3812929619710814  0.2522910849830132  0.7200841517120942  1.0000
  C   C10       1.0  0.6187070376764693  0.7522910852341229  0.7799158487058856  1.0000
  C   C11       1.0  0.6187070392000552  0.7477089149539791  0.2799158489690033  1.0000
  C   C12       1.0  0.38129296144868824  0.2477089149854829  0.22008415187347252  1.0000
  C   C13       1.0  0.5922155518500586  0.25929037767678026  0.6231374852321512  1.0000
  C   C14       1.0  0.4077844477909042  0.7592903776452764  0.8768625140044048  1.0000
  C   C15       1.0  0.4077844472685111  0.7407096222602121  0.3768625141657832  1.0000
  C   C16       1.0  0.5922155513276655  0.24070962229171594  0.12313748539352957  1.0000
  C   C17       1.0  0.7230596746773709  0.22820327251877634  0.5609793570257025  1.0000
  C   C18       1.0  0.27694032496359205  0.7282032724872725  0.9390206422108538  1.0000
  C   C19       1.0  0.2769403244411989  0.771796727418216  0.4390206423722321  1.0000
  C   C20       1.0  0.7230596762009567  0.27179672744971983  0.06097935728882017  1.0000
  C   C21       1.0  0.6774619031841853  0.29794969691665196  0.5781097789982934  1.0000
  C   C22       1.0  0.32253809850934445  0.7979496968851482  0.921890221521426  1.0000
  C   C23       1.0  0.3225380979869513  0.7020503033029539  0.4218902216828042  1.0000
  C   C24       1.0  0.6774619026552043  0.20205030333445773  0.07810977797824803  1.0000
  C   C25       1.0  0.055433816410242136  0.36225180753595065  0.8870539500951407  1.0000
  C   C26       1.0  0.9445661852766998  0.8622518075044469  0.612946049243155  1.0000
  C   C27       1.0  0.9445661847543065  0.6377481924010417  0.11294604940453322  1.0000
  C   C28       1.0  0.055433815887849  0.13774819243254552  0.38705395025651906  1.0000
  C   C29       1.0  0.19072707968901192  0.397989370020655  0.8352061111637288  1.0000
  C   C30       1.0  0.8092729199585388  0.8979893702717646  0.6647938892542512  1.0000
  C   C31       1.0  0.8092729194295578  0.6020106299163374  0.16479388823420577  1.0000
  C   C32       1.0  0.19072707916661877  0.1020106299478412  0.33520611132510697  1.0000
  C   C33       1.0  0.011947300902457637  0.4334114677554128  0.827838767595176  1.0000
  C   C34       1.0  0.9880526987450929  0.933411467723909  0.6721612328228038  1.0000
  C   C35       1.0  0.9880526982226998  0.5665885321815796  0.17216123298418212  1.0000
  C   C36       1.0  0.011947302419455729  0.0665885322130834  0.3278387666768702  1.0000
  C   C37       1.0  0.16541723177529766  0.46789886267725234  0.7728729234349025  1.0000
  C   C38       1.0  0.8345827678656652  0.9678988626457486  0.7271270758016536  1.0000
  C   C39       1.0  0.834582767343272  0.5321011375423534  0.22712707596303186  1.0000
  C   C40       1.0  0.16541723125290453  0.032101137573857276  0.2728729235962809  1.0000
  C   C41       1.0  0.9891941391008642  0.50346901341671  0.7550648355096728  1.0000
  C   C42       1.0  0.010805860546686554  0.003469013448213898  0.7449351649083069  1.0000
  C   C43       1.0  0.010805862070272487  0.4965309865202823  0.24493516517142463  1.0000
  C   C44       1.0  0.9891941385718831  0.9965309864887785  0.25506483448962763  1.0000
  C   C45       1.0  0.13894342502666354  0.5372293162118168  0.6908292988407853  1.0000
  C   C46       1.0  0.8610565766668661  0.03722931624332066  0.8091707016789341  1.0000
  C   C47       1.0  0.8610565761444731  0.46277068372517544  0.3091707018403123  1.0000
  C   C48       1.0  0.13894342449768254  0.9627706836936717  0.19082929782073993  1.0000
  C   C49       1.0  0.9621879502092078  0.5726021188082719  0.6767736388493313  1.0000
  C   C50       1.0  0.037812049438342946  0.07260211883977573  0.8232263615686485  1.0000
  C   C51       1.0  0.0378120489159498  0.4273978814113339  0.32322636173002683  1.0000
  C   C52       1.0  0.9621879496802267  0.92739788137983  0.17677363782928593  1.0000
  C   C53       1.0  0.08727316023199702  0.6054978733468717  0.5961801581645695  1.0000
  C   C54       1.0  0.9127268394155535  0.10549787337837549  0.9038198422534104  1.0000
  C   C55       1.0  0.9127268409325516  0.3945021265901207  0.40381984133510446  1.0000
  C   C56       1.0  0.08727315970960389  0.8945021265586168  0.09618015832594773  1.0000
  N   N1        1.0  0.6552675976575523  0.19249980735004682  0.5921420415555536  1.0000
  N   N2        1.0  0.34473240198341054  0.692499807318543  0.9078579576810024  1.0000
  N   N3        1.0  0.3447324014610174  0.8075001925869455  0.4078579578423808  1.0000
  N   N4        1.0  0.655267597135159  0.3075001926184493  0.09214204171693195  1.0000
  N   N5        1.0  0.5331108358271381  0.32752427255152017  0.6192557301828566  1.0000
  N   N6        1.0  0.4668891638204125  0.8275242725200163  0.8807442702351232  1.0000
  N   N7        1.0  0.46688916534399844  0.6724757273854722  0.38074427049824094  1.0000
  N   N8        1.0  0.5331108352981572  0.17247572741697603  0.11925572916281124  1.0000
  O   O1        1.0  0.8819219944778707  0.3012620303011734  0.4977595761529976  1.0000
  O   O2        1.0  0.11807800412489373  0.8012620302696696  0.0022404245877388146  1.0000
  O   O3        1.0  0.11807800464728689  0.6987379696358189  0.5022404244263605  1.0000
  O   O4        1.0  0.8819219950002637  0.19873796966732277  0.9977595759916192  1.0000
  O   O5        1.0  0.11838957330231055  0.3304492638179294  0.8389509230668258  1.0000
  O   O6        1.0  0.8816104263452401  0.8304492637864256  0.6610490773511539  1.0000
  O   O7        1.0  0.8816104258228471  0.6695507364016764  0.16104907751253222  1.0000
  O   O8        1.0  0.11838957482589649  0.16955073643318025  0.3389509233299437  1.0000
  O   O9        1.0  0.8735008547517872  0.3674505222900189  0.9902461584294651  1.0000
  O   O10       1.0  0.12649914489576336  0.867450522258515  0.5097538419885146  1.0000
  O   O11       1.0  0.12649914437337023  0.6325494779295869  0.00975384214989291  1.0000
  O   O12       1.0  0.8735008562753733  0.13254947767847727  0.4902461586925829  1.0000
  O   O13       1.0  0.9453671027223998  0.6370773200080199  0.6089426016477338  1.0000
  O   O14       1.0  0.05463289897112987  0.13707732003952372  0.8910573988719854  1.0000
  O   O15       1.0  0.05463289844873672  0.3629226799289724  0.3910573990333638  1.0000
  O   O16       1.0  0.9453671022000067  0.8629226801800821  0.1089426018091121  1.0000
  O   O17       1.0  0.2962121582290249  0.6033284003185313  0.524278194960312  1.0000
  O   O18       1.0  0.7037878414185257  0.10332840035003514  0.9757218054576678  1.0000
  O   O19       1.0  0.7037878408961327  0.39667159961846105  0.4757218056190462  1.0000
  O   O20       1.0  0.29621215770004394  0.8966715995869572  0.02427819394026661  1.0000
