data_image0
_chemical_formula_structural       H68C48N8O12S4Br4
_chemical_formula_sum              "H68 C48 N8 O12 S4 Br4"
_cell_length_a       7.114261588524075
_cell_length_b       13.304218296998458
_cell_length_c       15.024873644133082
_cell_angle_alpha    90.0
_cell_angle_beta     90.0
_cell_angle_gamma    90.0

_space_group_name_H-M_alt    "P 1"
_space_group_IT_number       1

loop_
  _space_group_symop_operation_xyz
  'x, y, z'

loop_
  _atom_site_type_symbol
  _atom_site_label
  _atom_site_symmetry_multiplicity
  _atom_site_fract_x
  _atom_site_fract_y
  _atom_site_fract_z
  _atom_site_occupancy
  H   H1        1.0  0.4366370720765757  0.680212469306948  0.27647405884322035  1.0000
  H   H2        1.0  0.06336292872996803  0.31978753016701894  0.7764740587056791  1.0000
  H   H3        1.0  0.5633629281308845  0.1802124699457852  0.22352594168480136  1.0000
  H   H4        1.0  0.9366370714774921  0.8197875302798231  0.72352594154726  1.0000
  H   H5        1.0  0.9087069008578842  0.8615349992104333  0.3600972412911213  1.0000
  H   H6        1.0  0.5912930987504923  0.1384650002635336  0.86009724115358  1.0000
  H   H7        1.0  0.0912930993495759  0.36153499909762926  0.13990275857133733  1.0000
  H   H8        1.0  0.4087069000513405  0.6384650003763377  0.639902758433796  1.0000
  H   H9        1.0  0.12313242198080804  0.7505480094424489  0.2781717869309344  1.0000
  H   H10       1.0  0.3768675774201084  0.24945199078315938  0.778171786793393  1.0000
  H   H11       1.0  0.8768675768210249  0.2505480093296447  0.22182821293152424  1.0000
  H   H12       1.0  0.6231324227873518  0.7494519908959636  0.7218282127939829  1.0000
  H   H13       1.0  0.6524672240739173  0.5687352643414669  0.19199848786258772  1.0000
  H   H14       1.0  0.8475327769400867  0.4312647358841412  0.6919984877250464  1.0000
  H   H15       1.0  0.34753277613354283  0.06873526422866286  0.3080015126654339  1.0000
  H   H16       1.0  0.1524672232673736  0.9312647359969454  0.8080015125278927  1.0000
  H   H17       1.0  0.5124786929231232  0.7502556277396563  0.4991016641879174  1.0000
  H   H18       1.0  0.9875213066852534  0.2497443724859519  0.999101664050376  1.0000
  H   H19       1.0  0.4875213072843369  0.25025562762685216  0.0008983356745412938  1.0000
  H   H20       1.0  0.012478693522206798  0.749744372598756  0.500898335537  1.0000
  H   H21       1.0  0.674280498448074  0.847693515562984  0.5120259585679786  1.0000
  H   H22       1.0  0.8257195025659299  0.1523064846626242  0.012025958039956982  1.0000
  H   H23       1.0  0.3257195017593861  0.34769351545017996  0.9879740416849604  1.0000
  H   H24       1.0  0.17428049764153036  0.652306484023787  0.4879740418225017  1.0000
  H   H25       1.0  0.5414287627845167  0.5120456029751801  0.9370962993421157  1.0000
  H   H26       1.0  0.9585712368238599  0.4879543964987868  0.43709629947965706  1.0000
  H   H27       1.0  0.4585712374229435  0.012045602862376017  0.5629037002452604  1.0000
  H   H28       1.0  0.041428761977973  0.9879543966115909  0.06290370038280162  1.0000
  H   H29       1.0  0.6854940079609496  0.5320067201240106  0.8428668087298711  1.0000
  H   H30       1.0  0.8145059930530543  0.46799328010159763  0.34286680886741244  1.0000
  H   H31       1.0  0.3145059922465105  0.03200672001120648  0.6571331908575049  1.0000
  H   H32       1.0  0.18549400715440595  0.9679932802144017  0.15713319099504625  1.0000
  H   H33       1.0  0.8681409916051894  0.6907417380601226  0.8310117659375776  1.0000
  H   H34       1.0  0.6318590080031872  0.30925826216548563  0.33101176607511895  1.0000
  H   H35       1.0  0.13185900719664345  0.19074173794731847  0.6689882343153614  1.0000
  H   H36       1.0  0.368140992204273  0.8092582622782898  0.1689882337873397  1.0000
  H   H37       1.0  0.9081965906936001  0.7678925617377205  0.9241737108000273  1.0000
  H   H38       1.0  0.5918034089147765  0.23210743848788773  0.42417371093756867  1.0000
  H   H39       1.0  0.09180340951386003  0.2678925616249164  0.5758262894529117  1.0000
  H   H40       1.0  0.40819659129268365  0.7321074378490505  0.075826289590453  1.0000
  H   H41       1.0  0.02878184860819545  0.5254278961716295  0.8152623456359699  1.0000
  H   H42       1.0  0.471218150792721  0.4745721033023374  0.31526234577351125  1.0000
  H   H43       1.0  0.9712181515992646  0.025427896810466713  0.6847376546169691  1.0000
  H   H44       1.0  0.5287818480091119  0.9745721034151414  0.1847376547545104  1.0000
  H   H45       1.0  0.23718950153898885  0.5021740880114163  0.8755975884786931  1.0000
  H   H46       1.0  0.2628104992675549  0.49782591146255056  0.3755975886162344  1.0000
  H   H47       1.0  0.7628104986684714  0.002174087898612248  0.6244024111086829  1.0000
  H   H48       1.0  0.7371895009399053  0.9978259115753546  0.12440241124622427  1.0000
  H   H49       1.0  0.19389599508473743  0.6789737809727586  0.884577422399139  1.0000
  H   H50       1.0  0.3061040057218063  0.3210262192528496  0.3845774225366803  1.0000
  H   H51       1.0  0.8061040051227227  0.17897378085995458  0.6154225778538001  1.0000
  H   H52       1.0  0.6938959944856539  0.8210262193656537  0.11542257732577836  1.0000
  H   H53       1.0  0.11918779334285237  0.635614765273945  0.9896545290286831  1.0000
  H   H54       1.0  0.3808122060580641  0.3643852349516632  0.4896545291662245  1.0000
  H   H55       1.0  0.8808122068646077  0.1356147651611409  0.5103454705586928  1.0000
  H   H56       1.0  0.6191877941493961  0.864385234312826  0.010345470696234177  1.0000
  H   H57       1.0  0.7422561546679808  0.6400962191007701  0.021256394400675012  1.0000
  H   H58       1.0  0.7577438449403958  0.3599037811248381  0.5212563942631336  1.0000
  H   H59       1.0  0.2577438455394793  0.14009621898796598  0.4787436054617837  1.0000
  H   H60       1.0  0.24225615526706434  0.8599037812376423  0.9787436053242423  1.0000
  H   H61       1.0  0.6008941232770828  0.6883034354649735  0.934438206439245  1.0000
  H   H62       1.0  0.8991058763312938  0.3116965647606346  0.4344382065767863  1.0000
  H   H63       1.0  0.3991058769303773  0.1883034353521695  0.565561793148131  1.0000
  H   H64       1.0  0.10089412387616636  0.8116965648734388  0.06556179328567237  1.0000
  H   H65       1.0  0.74690427725787  0.4041548913259404  0.9909933775592233  1.0000
  H   H66       1.0  0.7530957223505066  0.5958451081480265  0.49099337769676477  1.0000
  H   H67       1.0  0.25309572294959015  0.9041548914387445  0.5090066226937157  1.0000
  H   H68       1.0  0.24690427645132632  0.09584510878686373  0.009006622831256961  1.0000
  C   C1        1.0  0.586602326618381  0.6962732490709276  0.275249648546287  1.0000
  C   C2        1.0  0.9133976729899957  0.30372675040303937  0.7752496484087457  1.0000
  C   C3        1.0  0.4133976735890793  0.19627324970976476  0.22475035198173476  1.0000
  C   C4        1.0  0.08660232721746441  0.8037267505158434  0.7247503518441935  1.0000
  C   C5        1.0  0.9003977602303657  0.6536564137678029  0.23002322161621155  1.0000
  C   C6        1.0  0.5996022393780108  0.3463435864578052  0.7300232221442332  1.0000
  C   C7        1.0  0.0996022385714672  0.15365641365499888  0.2699767782462471  1.0000
  C   C8        1.0  0.4003977608294493  0.8463435865706094  0.7699767781087058  1.0000
  C   C9        1.0  0.85146047760899  0.7991041655110653  0.32203954686097336  1.0000
  C   C10       1.0  0.6485395219993867  0.2008958347145429  0.8220395473889951  1.0000
  C   C11       1.0  0.14853952119284292  0.2991041653982612  0.17796045300148527  1.0000
  C   C12       1.0  0.3514604782080736  0.700895834827347  0.6779604528639439  1.0000
  C   C13       1.0  0.658629772281411  0.7790329374209306  0.32115409382388943  1.0000
  C   C14       1.0  0.8413702273269656  0.22096706205303634  0.8211540936863482  1.0000
  C   C15       1.0  0.3413702279260492  0.27903293805976775  0.1788459067041322  1.0000
  C   C16       1.0  0.1586297728804945  0.7209670621658404  0.6788459065665908  1.0000
  C   C17       1.0  0.972966144675603  0.7360022108333221  0.27607158490944705  1.0000
  C   C18       1.0  0.5270338549327735  0.26399778939228624  0.7760715847719057  1.0000
  C   C19       1.0  0.02703385412622984  0.23600221072051789  0.22392841495301158  1.0000
  C   C20       1.0  0.4729661452746866  0.7639977895050903  0.7239284148154702  1.0000
  C   C21       1.0  0.7080284253428748  0.6330130746501668  0.22840701567830124  1.0000
  C   C22       1.0  0.791971575671129  0.36698692557544144  0.7284070155407599  1.0000
  C   C23       1.0  0.29197157486458525  0.13301307453736264  0.2715929841841574  1.0000
  C   C24       1.0  0.20802842453633116  0.8669869256882455  0.771592984046616  1.0000
  C   C25       1.0  0.9935554353809491  0.4501601429188195  0.9398035773507987  1.0000
  C   C26       1.0  0.5064445656330546  0.5498398573067886  0.4398035774883399  1.0000
  C   C27       1.0  0.006444564826510926  0.9501601422799822  0.5601964222365774  1.0000
  C   C28       1.0  0.4935554345744055  0.04983985719398459  0.06019642237411876  1.0000
  C   C29       1.0  0.6827992940034359  0.5348430370843624  0.9162689594648056  1.0000
  C   C30       1.0  0.8172007056049407  0.46515696314124577  0.4162689596023469  1.0000
  C   C31       1.0  0.31720070620402424  0.03484303697155832  0.5837310407881335  1.0000
  C   C32       1.0  0.18279929319689217  0.9651569625024086  0.08373104092567481  1.0000
  C   C33       1.0  0.895468150942935  0.6889942133667518  0.9031995756782286  1.0000
  C   C34       1.0  0.6045318486654416  0.3110057868588564  0.40319957515020693  1.0000
  C   C35       1.0  0.10453184926452519  0.18899421325394772  0.5968004245747104  1.0000
  C   C36       1.0  0.39546815154201853  0.8110057869716605  0.09680042471225175  1.0000
  C   C37       1.0  0.09119675906303013  0.5273917672850413  0.8824755997317429  1.0000
  C   C38       1.0  0.40880324174351357  0.47260823294056686  0.3824755998692843  1.0000
  C   C39       1.0  0.90880324114443  0.027391767172237208  0.617524399855633  1.0000
  C   C40       1.0  0.5911967584639466  0.972608233053371  0.11752439999317439  1.0000
  C   C41       1.0  0.08338783760171999  0.6356595555792977  0.9184367773627429  1.0000
  C   C42       1.0  0.4166121632048237  0.36434044464631066  0.41843677750028424  1.0000
  C   C43       1.0  0.9166121626057402  0.1356595554664935  0.5815632228901961  1.0000
  C   C44       1.0  0.5833878370026365  0.8643404447591148  0.0815632230277374  1.0000
  C   C45       1.0  0.7249212002998514  0.6414760822081081  0.9484802153770295  1.0000
  C   C46       1.0  0.7750788007141524  0.3585239180175001  0.44848021551457085  1.0000
  C   C47       1.0  0.2750787999076087  0.14147608209530405  0.5515197848759095  1.0000
  C   C48       1.0  0.22492119949330777  0.8585239181303042  0.05151978434788783  1.0000
  N   N1        1.0  0.5415459991258603  0.8259799527251603  0.48970908203764385  1.0000
  N   N2        1.0  0.9584540004825163  0.17402004750044792  0.9897090819001025  1.0000
  N   N3        1.0  0.45845400108159984  0.32597995261235624  0.010290917824814852  1.0000
  N   N4        1.0  0.04154599972494388  0.674020047613252  0.5102909176872735  1.0000
  N   N5        1.0  0.8080811323094275  0.45841692340360635  0.9526688522661374  1.0000
  N   N6        1.0  0.6919188687045764  0.5415830768220019  0.45266885173811566  1.0000
  N   N7        1.0  0.1919188678980327  0.9584169235164105  0.5473311479868017  1.0000
  N   N8        1.0  0.3080811315028838  0.04158307670919781  0.04733114812434299  1.0000
  O   O1        1.0  0.3163462225834324  0.8316338873134834  0.3639434054166057  1.0000
  O   O2        1.0  0.18365377681748407  0.16836611291212486  0.8639434052790643  1.0000
  O   O3        1.0  0.6836537776240278  0.33163388720067927  0.136056595111416  1.0000
  O   O4        1.0  0.8163462233899761  0.668366113024929  0.6360565949738747  1.0000
  O   O5        1.0  0.5704342241992143  0.9600556398628581  0.37633289197130215  1.0000
  O   O6        1.0  0.9295657754091624  0.03994436036275011  0.8763328918337607  1.0000
  O   O7        1.0  0.42956577600824586  0.460055639750054  0.12366710789115652  1.0000
  O   O8        1.0  0.07043422339267057  0.5399443604755542  0.6236671077536152  1.0000
  O   O9        1.0  0.0838595590809264  0.37848011492234934  0.9746761980736088  1.0000
  O   O10       1.0  0.41614044031999003  0.6215198853032589  0.47467619821115015  1.0000
  O   O11       1.0  0.9161404397209064  0.8784801150351534  0.5253238015137672  1.0000
  O   O12       1.0  0.5838595598874701  0.12151988519045474  0.025323801651308573  1.0000
  S   S1        1.0  0.509175737344725  0.8566047854589949  0.3859026296879414  1.0000
  S   S2        1.0  0.9908242622636516  0.14339521401497196  0.885902630215963  1.0000
  S   S3        1.0  0.4908242628627351  0.35660478609783214  0.11409737017451724  1.0000
  S   S4        1.0  0.009175737943808545  0.643395214127776  0.614097370036976  1.0000
  Br  Br1       1.0  0.07528653723725633  0.5676910947638275  0.17213537506253201  1.0000
  Br  Br2       1.0  0.42471346356928735  0.4323089054617807  0.6721353755905537  1.0000
  Br  Br3       1.0  0.9247134629702038  0.0676910946510234  0.3278646247999267  1.0000
  Br  Br4       1.0  0.5752865366381728  0.9323089055745848  0.8278646246623853  1.0000
