data_image0
_chemical_formula_structural       H20C38N4O4F10Br2
_chemical_formula_sum              "H20 C38 N4 O4 F10 Br2"
_cell_length_a       6.618152809717423
_cell_length_b       7.194019472270442
_cell_length_c       18.577748348471356
_cell_angle_alpha    86.01014972164093
_cell_angle_beta     84.39420852536342
_cell_angle_gamma    83.90715794787492

_space_group_name_H-M_alt    "P 1"
_space_group_IT_number       1

loop_
  _space_group_symop_operation_xyz
  'x, y, z'

loop_
  _atom_site_type_symbol
  _atom_site_label
  _atom_site_symmetry_multiplicity
  _atom_site_fract_x
  _atom_site_fract_y
  _atom_site_fract_z
  _atom_site_occupancy
  H   H1        1.0  0.6036314789954185  0.12559442038671428  0.378126938554084  1.0000
  H   H2        1.0  0.39636852184124016  0.8744055799170352  0.6218730611691125  1.0000
  H   H3        1.0  0.709838668328081  0.03442094727532823  0.19627479346867016  1.0000
  H   H4        1.0  0.29016133237054326  0.9655790529600349  0.8037252067963284  1.0000
  H   H5        1.0  0.8921148898485557  0.9352389845125918  0.07946021155793226  1.0000
  H   H6        1.0  0.10788510933995855  0.0647610157130761  0.9205397887080543  1.0000
  H   H7        1.0  0.4556389045607775  0.8451551842469539  0.18129961637921432  1.0000
  H   H8        1.0  0.544361096137847  0.15484481598840918  0.8187003838857843  1.0000
  H   H9        1.0  0.27153786891775955  0.9479854563260541  0.2975809124100084  1.0000
  H   H10       1.0  0.728462131918899  0.05201454397769534  0.702419087313188  1.0000
  H   H11       1.0  0.20647590420276374  0.7990129648141139  0.5196597328091298  1.0000
  H   H12       1.0  0.7935240951558398  0.20098703401280904  0.4803402674628203  1.0000
  H   H13       1.0  0.33186528782025193  0.6645554077685603  0.399301833135268  1.0000
  H   H14       1.0  0.6681347130164067  0.33544459253518905  0.6006981665879285  1.0000
  H   H15       1.0  0.94620136575842  0.6803719565099048  0.4572915199162256  1.0000
  H   H16       1.0  0.05379863356812857  0.3196280437841494  0.5427084798079589  1.0000
  H   H17       1.0  0.794076644991923  0.8085943528001137  0.5755866776649141  1.0000
  H   H18       1.0  0.20592335433462539  0.19140564749394062  0.4244133220592703  1.0000
  H   H19       1.0  0.6105778525405994  0.5295024952548373  0.3206034852583856  1.0000
  H   H20       1.0  0.38942214678594894  0.470497505039217  0.6793965144657987  1.0000
  C   C1        1.0  0.8725584110989046  0.05423464399331407  0.3250564045422838  1.0000
  C   C2        1.0  0.12744158822764368  0.9457653563007402  0.6749435951819007  1.0000
  C   C3        1.0  0.9783873968051228  0.9955299887157187  0.2544624967734675  1.0000
  C   C4        1.0  0.02161260389350161  0.004470011519644411  0.7455375034915311  1.0000
  C   C5        1.0  0.8729667654248956  0.9922830435620892  0.19279394512716844  1.0000
  C   C6        1.0  0.12703323390165283  0.007716956731964943  0.8072060545970159  1.0000
  C   C7        1.0  0.9746518974388004  0.9364115686500605  0.12734804571042413  1.0000
  C   C8        1.0  0.025348103259824038  0.06358843158530264  0.8726519545545746  1.0000
  C   C9        1.0  0.18423068607514317  0.88261969882367  0.12432484252593448  1.0000
  C   C10       1.0  0.8157693147615155  0.11738030148007944  0.875675157197262  1.0000
  C   C11       1.0  0.2924821537952252  0.8860603842291843  0.18505914022044054  1.0000
  C   C12       1.0  0.707517845393289  0.11393961599648363  0.814940860045546  1.0000
  C   C13       1.0  0.1890983838242919  0.9430801320706623  0.2498670350022496  1.0000
  C   C14       1.0  0.8109016155022566  0.05691986822339199  0.7501329647219349  1.0000
  C   C15       1.0  0.36848829713220826  0.7675007596957681  0.5028246566713421  1.0000
  C   C16       1.0  0.63151170219434  0.23249924059828628  0.49717534305284233  1.0000
  C   C17       1.0  0.43975239235561586  0.6944589988220555  0.4367108220489193  1.0000
  C   C18       1.0  0.560247608651132  0.3055410000829488  0.5632891776802409  1.0000
  C   C19       1.0  0.6510663435994607  0.6600753477832813  0.41943918403985936  1.0000
  C   C20       1.0  0.34893365572708773  0.3399246525107731  0.580560815684325  1.0000
  C   C21       1.0  0.7817292539630774  0.7033629256055016  0.4696809962746811  1.0000
  C   C22       1.0  0.2182707468735812  0.29663707469824774  0.5303190034485155  1.0000
  C   C23       1.0  0.6980433612595893  0.7738619243848966  0.5349161775577599  1.0000
  C   C24       1.0  0.30195663974715864  0.22613807452010762  0.4650838221714002  1.0000
  C   C25       1.0  0.7264261051609208  0.5800954912153405  0.3505145126829209  1.0000
  C   C26       1.0  0.27357389553770356  0.41990450902002274  0.6494854875820777  1.0000
  C   C27       1.0  0.9860164365603444  0.5022209470775771  0.26032461826868764  1.0000
  C   C28       1.0  0.013983564138280105  0.49777905315778603  0.739675381996311  1.0000
  C   C29       1.0  0.874261214435173  0.5154460424808535  0.19893560179232656  1.0000
  C   C30       1.0  0.12573878626345159  0.4845539577545096  0.801064398472672  1.0000
  C   C31       1.0  0.9580275913594201  0.4553364962863968  0.13196408608027496  1.0000
  C   C32       1.0  0.041972407967128325  0.5446635040076576  0.8680359136439095  1.0000
  C   C33       1.0  0.1597893448193237  0.3760586213950859  0.12385659985340779  1.0000
  C   C34       1.0  0.8402106560173349  0.6239413789086633  0.8761433998697886  1.0000
  C   C35       1.0  0.2765731932587266  0.36259972779991645  0.18285800155384724  1.0000
  C   C36       1.0  0.7234268060678217  0.6374002724941379  0.8171419981703372  1.0000
  C   C37       1.0  0.19094491417508797  0.4258141812907015  0.24916551234720527  1.0000
  C   C38       1.0  0.8090550866615707  0.5741858190130478  0.7508344873759912  1.0000
  N   N1        1.0  0.4946985086809472  0.8043509181429669  0.5511388479528361  1.0000
  N   N2        1.0  0.5053014920176773  0.1956490820923963  0.4488611523121625  1.0000
  N   N3        1.0  0.9175730241749829  0.5690202642959754  0.3277026550883918  1.0000
  N   N4        1.0  0.08242697652364163  0.43097973593938776  0.6722973451766068  1.0000
  O   O1        1.0  0.6709899264872329  0.08039805002460614  0.32616507308118137  1.0000
  O   O2        1.0  0.3290100743494258  0.9196019502791432  0.673834926642015  1.0000
  O   O3        1.0  0.9685009539139467  0.07567167991052509  0.3774604953354384  1.0000
  O   O4        1.0  0.03149904678467767  0.9243283203248381  0.6225395049295602  1.0000
  F   F1        1.0  0.6802655585597105  0.5980221113504044  0.20257437216064209  1.0000
  F   F2        1.0  0.3197344422769479  0.4019778889533449  0.7974256275625544  1.0000
  F   F3        1.0  0.8452948977308435  0.4749514376213156  0.07499381372652554  1.0000
  F   F4        1.0  0.15470510296778103  0.5250485626140475  0.9250061865384729  1.0000
  F   F5        1.0  0.2411576342332503  0.312596820713553  0.060046050075057096  1.0000
  F   F6        1.0  0.758842364955264  0.6874031795121149  0.9399539501909295  1.0000
  F   F7        1.0  0.471898077202394  0.28669159239657804  0.17485988862182225  1.0000
  F   F8        1.0  0.5281019221562094  0.713308406430345  0.8251401116501279  1.0000
  F   F9        1.0  0.3087768556060157  0.40953745761438465  0.3050811089859839  1.0000
  F   F10       1.0  0.6912231450926087  0.5904625426209784  0.6949188912790147  1.0000
  Br  Br1       1.0  0.32720404109914314  0.8020950195682575  0.036500878197661873  1.0000
  Br  Br2       1.0  0.6727959582594604  0.19790497925866546  0.9634991220742883  1.0000
