data_image0
_chemical_formula_structural       H94C132N8O4P2S2
_chemical_formula_sum              "H94 C132 N8 O4 P2 S2"
_cell_length_a       11.338950467531326
_cell_length_b       13.845917431836126
_cell_length_c       15.475314539547078
_cell_angle_alpha    80.16259361323922
_cell_angle_beta     83.7945676776774
_cell_angle_gamma    85.78042700889809

_space_group_name_H-M_alt    "P 1"
_space_group_IT_number       1

loop_
  _space_group_symop_operation_xyz
  'x, y, z'

loop_
  _atom_site_type_symbol
  _atom_site_label
  _atom_site_symmetry_multiplicity
  _atom_site_fract_x
  _atom_site_fract_y
  _atom_site_fract_z
  _atom_site_occupancy
  H   H1        1.0  0.8700430240219756  0.031218953064827748  0.6887902558917066  1.0000
  H   H2        1.0  0.12995697622499855  0.9687810465244007  0.31120974445269267  1.0000
  H   H3        1.0  0.42220325234990846  0.9077125596998932  0.8872478007097652  1.0000
  H   H4        1.0  0.5777967478970658  0.0922874398893352  0.11275219963463423  1.0000
  H   H5        1.0  0.8599989445446313  0.8558821067147157  0.41630829022451393  1.0000
  H   H6        1.0  0.14000105573415503  0.1441178937211861  0.5836917094630167  1.0000
  H   H7        1.0  0.06303991581997405  0.08662203450286593  0.7156341920279332  1.0000
  H   H8        1.0  0.9369600843728368  0.9133779658101171  0.28436580831854863  1.0000
  H   H9        1.0  0.9203388019024831  0.940315247408665  0.5333183092194904  1.0000
  H   H10       1.0  0.0796611983763033  0.0596847530272369  0.46668169046804037  1.0000
  H   H11       1.0  0.22459498795202845  0.23666156049814818  0.3342820980102652  1.0000
  H   H12       1.0  0.7754050122949459  0.7633384390910802  0.6657179023341341  1.0000
  H   H13       1.0  0.4348569026750137  0.03933814678764712  0.23330496170245313  1.0000
  H   H14       1.0  0.5651430976579359  0.9606618529245001  0.7666950379829952  1.0000
  H   H15       1.0  0.3404688789764662  0.8785314502801259  0.27339023147056557  1.0000
  H   H16       1.0  0.6595311212163446  0.1214685500328572  0.7266097688759162  1.0000
  H   H17       1.0  0.808024259227189  0.8644271216621288  0.7559073268171606  1.0000
  H   H18       1.0  0.19197574096562187  0.13557287865085432  0.2440926735293212  1.0000
  H   H19       1.0  0.8717806804948155  0.5596840026782554  0.27970185142028214  1.0000
  H   H20       1.0  0.12821931975215858  0.4403159969109731  0.7202981489241173  1.0000
  H   H21       1.0  0.10391827866730335  0.610940085063682  0.49197067948232887  1.0000
  H   H22       1.0  0.8960817206969794  0.38905991453468775  0.508029320862241  1.0000
  H   H23       1.0  0.2569055880498547  0.8207054114941864  0.4271418520268575  1.0000
  H   H24       1.0  0.7430944122289316  0.1792945889417154  0.5728581476606732  1.0000
  H   H25       1.0  0.2693797339753656  0.9183086964280841  0.5433610332896692  1.0000
  H   H26       1.0  0.7306202662716086  0.08169130316114433  0.45663896705473017  1.0000
  H   H27       1.0  0.06950105246414327  0.03565295944720173  0.9374992482559313  1.0000
  H   H28       1.0  0.930498946845976  0.9643470408749226  0.06250075209072087  1.0000
  H   H29       1.0  0.3294669561993731  0.13401858610138967  0.8501561684425438  1.0000
  H   H30       1.0  0.670533044047601  0.8659814134878386  0.14984383190185552  1.0000
  H   H31       1.0  0.6350159561783214  0.2614830573227944  0.098016672909098  1.0000
  H   H32       1.0  0.36498404406865287  0.7385169422664338  0.9019833274353014  1.0000
  H   H33       1.0  0.4293131549359143  0.26021511243642836  0.7454812776422587  1.0000
  H   H34       1.0  0.5706868444601805  0.7397848880086149  0.25451872204544246  1.0000
  H   H35       1.0  0.05760238790581567  0.36118130556375944  0.31436780534936787  1.0000
  H   H36       1.0  0.9423976122869953  0.6388186947492237  0.6856321949971139  1.0000
  H   H37       1.0  0.29783230709534525  0.9701655086787944  0.14700780342633332  1.0000
  H   H38       1.0  0.7021676932376044  0.029834491033352773  0.8529921962591149  1.0000
  H   H39       1.0  0.07471720293453471  0.8596272797825946  0.6290555176627601  1.0000
  H   H40       1.0  0.9252827973442517  0.14037272065330714  0.37094448202477065  1.0000
  H   H41       1.0  0.47152846182983504  0.4560453582965365  0.21400313214498004  1.0000
  H   H42       1.0  0.5284715384489511  0.5439546421393653  0.7859968675425507  1.0000
  H   H43       1.0  0.45728832658054186  0.9040078406656598  0.04450735112856921  1.0000
  H   H44       1.0  0.5427116737524077  0.0959921590464874  0.9554926485568791  1.0000
  H   H45       1.0  0.14360522639238688  0.8033658654228201  0.8674344333221686  1.0000
  H   H46       1.0  0.8563947739405628  0.19663413428932708  0.1325655663632796  1.0000
  H   H47       1.0  0.9478584411517483  0.7485995712548037  0.8433435284906678  1.0000
  H   H48       1.0  0.052141559181201454  0.25140042845734345  0.15665647119478043  1.0000
  H   H49       1.0  0.26836017148859737  0.9816673854019418  0.640493533773043  1.0000
  H   H50       1.0  0.7316398288443523  0.018332614310205483  0.3595064659124053  1.0000
  H   H51       1.0  0.8772310590107467  0.5205499666588074  0.17079306405425432  1.0000
  H   H52       1.0  0.12276894123622761  0.47945003293042115  0.8292069362901451  1.0000
  H   H53       1.0  0.09692942911237598  0.534271956396773  0.24577552249466147  1.0000
  H   H54       1.0  0.9030705703378821  0.46572804332451545  0.7542244771909573  1.0000
  H   H55       1.0  0.6737527871554516  0.5243767682008149  0.5845149427894755  1.0000
  H   H56       1.0  0.3262472131233348  0.4756232322350869  0.4154850568980552  1.0000
  H   H57       1.0  0.7787572209347768  0.3514387032070738  0.9842214321163728  1.0000
  H   H58       1.0  0.22124277934400943  0.6485612972288278  0.01577856757115795  1.0000
  H   H59       1.0  0.10408995069094591  0.03258306174979841  0.09421361111896519  1.0000
  H   H60       1.0  0.8959100495560284  0.9674169378394298  0.9057863892254342  1.0000
  H   H61       1.0  0.8184232683958874  0.6492841907240927  0.5344192669315955  1.0000
  H   H62       1.0  0.18157673179692346  0.3507158095888902  0.4655807334148863  1.0000
  H   H63       1.0  0.303427294648684  0.5811895721417564  0.19823847920482057  1.0000
  H   H64       1.0  0.6965727056301022  0.4188104282941455  0.8017615204827101  1.0000
  H   H65       1.0  0.16948109415841917  0.7167964487379913  0.33081456883225135  1.0000
  H   H66       1.0  0.8305189060885552  0.283203550851237  0.6691854315121479  1.0000
  H   H67       1.0  0.16692853594316756  0.6962842721474796  0.6074985249532097  1.0000
  H   H68       1.0  0.8330714635070905  0.30371572757380894  0.39250147473240904  1.0000
  H   H69       1.0  0.9006014250664404  0.4766204127552174  0.022362654410106094  1.0000
  H   H70       1.0  0.09939857526650935  0.5233795869569299  0.9776373452753422  1.0000
  H   H71       1.0  0.8289473962970471  0.7173683496938349  0.2304380864454538  1.0000
  H   H72       1.0  0.1710526030130722  0.28263165062828943  0.7695619139011984  1.0000
  H   H73       1.0  0.2604521014558593  0.7724605577369721  0.1788298231331776  1.0000
  H   H74       1.0  0.7395478979943989  0.22753944198431633  0.8211701765524411  1.0000
  H   H75       1.0  0.13783093236258775  0.7975355272686032  0.0522968270697599  1.0000
  H   H76       1.0  0.8621690678843866  0.2024644723206252  0.9477031732746394  1.0000
  H   H77       1.0  0.9216476348166306  0.766987647874255  0.07903587733004218  1.0000
  H   H78       1.0  0.07835236457946428  0.23301235257078814  0.9209641223576589  1.0000
  H   H79       1.0  0.21783784157943872  0.36286513174541485  0.004738763844891203  1.0000
  H   H80       1.0  0.782162158613372  0.6371348685675684  0.9952612365015906  1.0000
  H   H81       1.0  0.2822007954963509  0.32516486969559666  0.10622186622539365  1.0000
  H   H82       1.0  0.7177992047506233  0.6748351298936317  0.8937781341190058  1.0000
  H   H83       1.0  0.47297995589902575  0.38170346510904046  0.04326937922619921  1.0000
  H   H84       1.0  0.527020044293785  0.6182965352039427  0.9567306211202825  1.0000
  H   H85       1.0  0.3813907805341309  0.4700069935599039  0.9798235877697031  1.0000
  H   H86       1.0  0.6186092197128433  0.5299930060293245  0.020176412574696143  1.0000
  H   H87       1.0  0.3960358640680543  0.18908756800954457  0.05057953479317277  1.0000
  H   H88       1.0  0.6039641353822038  0.8109124317117439  0.9494204648924459  1.0000
  H   H89       1.0  0.26089764557964173  0.1876155941363297  0.0007753742623026193  1.0000
  H   H90       1.0  0.7391023537304775  0.8123844061857947  0.9992246260843496  1.0000
  H   H91       1.0  0.43284870488056315  0.3946220673563474  0.8519990725917637  1.0000
  H   H92       1.0  0.567151295366411  0.6053779322328809  0.14800092775263565  1.0000
  H   H93       1.0  0.5506723664758006  0.3306453825740483  0.9111729659839108  1.0000
  H   H94       1.0  0.4493276337711735  0.66935461701518  0.08882703436048853  1.0000
  C   C1        1.0  0.9299692738899242  0.9808039339636563  0.7276000055399503  1.0000
  C   C2        1.0  0.07003072550617052  0.01919606648138694  0.27239999414775096  1.0000
  C   C3        1.0  0.35338491183023885  0.9352573105010894  0.9331125434234656  1.0000
  C   C4        1.0  0.6466150876200193  0.06474268922019905  0.06688745626215303  1.0000
  C   C5        1.0  0.9288834347089305  0.8225146018737605  0.4575122722767672  1.0000
  C   C6        1.0  0.07111656474132771  0.17748539784752815  0.5424877274088514  1.0000
  C   C7        1.0  0.3587955697090916  0.3378047864630873  0.2739789903644346  1.0000
  C   C8        1.0  0.6412044304837192  0.6621952138498958  0.7260210099820471  1.0000
  C   C9        1.0  0.03929141082441607  0.011860612015209214  0.7417202120167773  1.0000
  C   C10       1.0  0.960708589422558  0.9881393875740192  0.25827978832762205  1.0000
  C   C11       1.0  0.9805990204456766  0.7301593661159368  0.44583892066816666  1.0000
  C   C12       1.0  0.019400978864442787  0.2698406342061875  0.5541610796784855  1.0000
  C   C13       1.0  0.9625388883007383  0.8692130707522578  0.5233590453391578  1.0000
  C   C14       1.0  0.03746111100938097  0.13078692956986668  0.4766409550074944  1.0000
  C   C15       1.0  0.24405313189626146  0.9721693185405463  0.9033056602670801  1.0000
  C   C16       1.0  0.7559468683507127  0.02783068104868195  0.09669434007731927  1.0000
  C   C17       1.0  0.24210026821157737  0.3116285989858007  0.3029269876769553  1.0000
  C   C18       1.0  0.7578997310985419  0.6883714013363236  0.697073012669697  1.0000
  C   C19       1.0  0.5692569849935775  0.33538037157724765  0.4313706557714065  1.0000
  C   C20       1.0  0.4307430144025175  0.6646196288677955  0.5686293439162946  1.0000
  C   C21       1.0  0.3976345163529562  0.013843767200647035  0.30024487753358975  1.0000
  C   C22       1.0  0.6023654838398548  0.986156233112336  0.699755122812892  1.0000
  C   C23       1.0  0.11696089967380435  0.9483160325186316  0.7926134066568684  1.0000
  C   C24       1.0  0.8830391005731698  0.05168396707059679  0.20738659368753087  1.0000
  C   C25       1.0  0.4443832292979257  0.18276491072536824  0.44881296790754144  1.0000
  C   C26       1.0  0.5556167700121937  0.8172350895967562  0.5511870324391107  1.0000
  C   C27       1.0  0.3444407958149106  0.924226855546197  0.32361477209615774  1.0000
  C   C28       1.0  0.6555592044638757  0.07577314488970484  0.676385227591373  1.0000
  C   C29       1.0  0.620400118278354  0.35232481820398626  0.34299321984022074  1.0000
  C   C30       1.0  0.3795998810859286  0.6476751813943835  0.6570067805043489  1.0000
  C   C31       1.0  0.49216848128740937  0.26163548192644864  0.47749065779156297  1.0000
  C   C32       1.0  0.5078315189913769  0.7383645185094531  0.5225093418959678  1.0000
  C   C33       1.0  0.604513847679824  0.39532270805592606  0.4877764862661889  1.0000
  C   C34       1.0  0.3954861517704343  0.6046772916653624  0.5122235134194297  1.0000
  C   C35       1.0  0.7046110813545098  0.42300679165417604  0.3126939624010797  1.0000
  C   C36       1.0  0.29538891883830115  0.576993208658807  0.687306037945402  1.0000
  C   C37       1.0  0.403620568446758  0.06930820935530992  0.36672917301328517  1.0000
  C   C38       1.0  0.596379431746053  0.9306917909576731  0.6332708273331966  1.0000
  C   C39       1.0  0.6755507042515569  0.34158386472387037  0.1985796367430874  1.0000
  C   C40       1.0  0.32444929514453785  0.6584161357211729  0.8014203629446138  1.0000
  C   C41       1.0  0.8953901540317146  0.8867508203852505  0.7648908180278184  1.0000
  C   C42       1.0  0.10460984630123504  0.11324917932689661  0.23510918165762987  1.0000
  C   C43       1.0  0.7414895463497417  0.4157160335263972  0.22139424006141012  1.0000
  C   C44       1.0  0.2585104530463531  0.5842839669186459  0.778605759626291  1.0000
  C   C45       1.0  0.3579669459272769  0.03717830752510422  0.4554980057361674  1.0000
  C   C46       1.0  0.6420330534370058  0.9628216920732656  0.5445019946084024  1.0000
  C   C47       1.0  0.8269026090704947  0.552863202412764  0.34558764701596756  1.0000
  C   C48       1.0  0.17309739032559993  0.44713679803227924  0.6544123526717335  1.0000
  C   C49       1.0  0.06567199351883425  0.6837765599255282  0.5002853470532943  1.0000
  C   C50       1.0  0.9343280067599521  0.31622344051037377  0.49971465263423637  1.0000
  C   C51       1.0  0.2977277223620119  0.8911737800289267  0.41046710102863265  1.0000
  C   C52       1.0  0.7022722778849623  0.10882621956030171  0.5895328993157667  1.0000
  C   C53       1.0  0.3043599375106369  0.9467293092123048  0.47640309383818746  1.0000
  C   C54       1.0  0.6956400628223127  0.05327069049984245  0.5235969058472608  1.0000
  C   C55       1.0  0.1537335650904762  0.006222423156299149  0.9616880812437478  1.0000
  C   C56       1.0  0.8462664351023347  0.9937775771566838  0.03831191910273401  1.0000
  C   C57       1.0  0.2899551534231142  0.049465041597775844  0.7513367677018783  1.0000
  C   C58       1.0  0.7100448468556723  0.950534958838126  0.24866323198565246  1.0000
  C   C59       1.0  0.33895479037440557  0.12788944619857412  0.7807302025059993  1.0000
  C   C60       1.0  0.6610452099043808  0.8721105542373278  0.21926979718153147  1.0000
  C   C61       1.0  0.3836072496200225  0.10965978491664989  0.5069880070722816  1.0000
  C   C62       1.0  0.6163927506587639  0.8903402155192519  0.49301199261524903  1.0000
  C   C63       1.0  0.6851609435024661  0.4706950513022665  0.46008771931014586  1.0000
  C   C64       1.0  0.3148390567763203  0.5293049491336353  0.5399122803773848  1.0000
  C   C65       1.0  0.6867771034471681  0.3180280560306115  0.1137553291032275  1.0000
  C   C66       1.0  0.31322289594892655  0.6819719444144318  0.8862446705844736  1.0000
  C   C67       1.0  0.47171740774893134  0.26612761952935954  0.5680053225605668  1.0000
  C   C68       1.0  0.5282825924438795  0.7338723807836234  0.43199467778591505  1.0000
  C   C69       1.0  0.3954877214943827  0.1991723978202497  0.7211482967914863  1.0000
  C   C70       1.0  0.604512278838567  0.8008276018918975  0.27885170289396194  1.0000
  C   C71       1.0  0.14797178673773162  0.3819751382821449  0.29178367003255  1.0000
  C   C72       1.0  0.8520282135410547  0.6180248621537568  0.7082163296549807  1.0000
  C   C73       1.0  0.28320401081787266  0.9695500418094766  0.07875063366860782  1.0000
  C   C74       1.0  0.7167959893749382  0.030449958503506524  0.9212493666778738  1.0000
  C   C75       1.0  0.40898806892785583  0.19562993534465867  0.629915218659045  1.0000
  C   C76       1.0  0.5910119313509306  0.8043700650912431  0.37008478102848585  1.0000
  C   C77       1.0  0.048845518466820094  0.8238253930511363  0.5770725404397109  1.0000
  C   C78       1.0  0.9511544808432992  0.17617460727098802  0.4229274599069413  1.0000
  C   C79       1.0  0.3809583538085512  0.4351985628898608  0.23608169059762976  1.0000
  C   C80       1.0  0.6190416456417069  0.5648014368314277  0.7639183090879889  1.0000
  C   C81       1.0  0.3725299996888838  0.9337468293529781  0.021076542316862085  1.0000
  C   C82       1.0  0.6274700005899027  0.0662531710829235  0.9789234573706685  1.0000
  C   C83       1.0  0.8566520686542162  0.6132294056860175  0.40280881830604187  1.0000
  C   C84       1.0  0.14334793162457013  0.3867705947498842  0.5971911813814889  1.0000
  C   C85       1.0  0.08313816035325597  0.8530551885458844  0.8285536046715907  1.0000
  C   C86       1.0  0.9168618399255304  0.14694481189001757  0.17144639501594  1.0000
  C   C87       1.0  0.9728620484568847  0.822813930551158  0.8149411978293534  1.0000
  C   C88       1.0  0.027137951790089498  0.1771860690380704  0.18505880251504603  1.0000
  C   C89       1.0  0.30450817751236575  0.04318645624790208  0.6617539747535155  1.0000
  C   C90       1.0  0.6954918227664205  0.9568135441879998  0.3382460249340152  1.0000
  C   C91       1.0  0.36396636000897553  0.11441274575882923  0.5993987227764314  1.0000
  C   C92       1.0  0.6360336402698107  0.8855872546770726  0.40060127691109937  1.0000
  C   C93       1.0  0.8239872065297753  0.4638428714926582  0.15680814615102764  1.0000
  C   C94       1.0  0.17601279380317444  0.536157128219489  0.8431918535344206  1.0000
  C   C95       1.0  0.739846163297022  0.4835768729609956  0.3710936768631455  1.0000
  C   C96       1.0  0.26015383698176414  0.5164231274749063  0.6289063228243852  1.0000
  C   C97       1.0  0.17006449638669272  0.47866600575736157  0.253410191885127  1.0000
  C   C98       1.0  0.8299355038920936  0.5213339946785402  0.7465898078024038  1.0000
  C   C99       1.0  0.7165762240699187  0.5318449212106459  0.5172793272562062  1.0000
  C   C100      1.0  0.28342377626303106  0.4681550785015013  0.4827206724292421  1.0000
  C   C101      1.0  0.768077021459875  0.3683202673533412  0.050928893762597446  1.0000
  C   C102      1.0  0.23192297790440777  0.6316797322450286  0.9490711065819722  1.0000
  C   C103      1.0  0.9932358700907297  0.7114665853819674  0.29110120745703005  1.0000
  C   C104      1.0  0.006764129305365195  0.2885334150630758  0.708898792230671  1.0000
  C   C105      1.0  0.17362858926918343  0.0049545736527831594  0.04907329710771162  1.0000
  C   C106      1.0  0.8263714109236275  0.9950454266601998  0.9509267032387702  1.0000
  C   C107      1.0  0.7982267397941747  0.6019928255769035  0.48955150512257817  1.0000
  C   C108      1.0  0.20177326053877492  0.3980071741352435  0.5104484945628701  1.0000
  C   C109      1.0  0.2865452021285269  0.5052914928849961  0.22646432975301325  1.0000
  C   C110      1.0  0.7134547981184473  0.49470850670423233  0.7735356705913862  1.0000
  C   C111      1.0  0.1151330053383139  0.7282413456572071  0.275595720519424  1.0000
  C   C112      1.0  0.884866994057781  0.27175865478783595  0.7244042791682771  1.0000
  C   C113      1.0  0.10005219310431787  0.7315587165688352  0.5653281615989965  1.0000
  C   C114      1.0  0.8999478072286317  0.26844128314331206  0.43467183808645166  1.0000
  C   C115      1.0  0.8369855459093561  0.4392529248183875  0.07260759459597331  1.0000
  C   C116      1.0  0.1630144544235935  0.5607470748937596  0.927392405089475  1.0000
  C   C117      1.0  0.9242253873828579  0.7260628990546648  0.21923342600658213  1.0000
  C   C118      1.0  0.0757746119272615  0.2739371012674596  0.7807665743400701  1.0000
  C   C119      1.0  0.166105780070095  0.7587040416366442  0.1901140410026331  1.0000
  C   C120      1.0  0.8338942201768791  0.24129595795258416  0.8098859593417661  1.0000
  C   C121      1.0  0.09773627869501576  0.7719605122770982  0.11869316576463648  1.0000
  C   C122      1.0  0.9022637216379339  0.22803948743504898  0.8813068339208118  1.0000
  C   C123      1.0  0.976735224849615  0.7550441096200183  0.13389022825967234  1.0000
  C   C124      1.0  0.02326477534319611  0.24495589069296483  0.8661097720868094  1.0000
  C   C125      1.0  0.2985493386291143  0.3308379439322212  0.03445668245028526  1.0000
  C   C126      1.0  0.7014506616496721  0.6691620565036807  0.9655433172372454  1.0000
  C   C127      1.0  0.4057517639233591  0.39142630966591574  0.9960589668268631  1.0000
  C   C128      1.0  0.5942482363554271  0.6085736907699861  0.003941032860667569  1.0000
  C   C129      1.0  0.3352018391436072  0.23232690504138195  0.005695291467632316  1.0000
  C   C130      1.0  0.6647981611893423  0.7676730946707653  0.994304708217816  1.0000
  C   C131      1.0  0.45350045238858117  0.3467027046325708  0.9137186187008997  1.0000
  C   C132      1.0  0.5464995470616769  0.6532972950887178  0.08628138098471905  1.0000
  N   N1        1.0  0.22587587877470539  0.9802378390754847  0.8122130398456433  1.0000
  N   N2        1.0  0.7741241214722687  0.019762160513743656  0.18778696049875604  1.0000
  N   N3        1.0  0.45686225012726267  0.1603157486923793  0.3625957158271709  1.0000
  N   N4        1.0  0.5431377501515235  0.8396842517435225  0.6374042838603599  1.0000
  N   N5        1.0  0.6023053123698833  0.3010036988721717  0.2746413301472278  1.0000
  N   N6        1.0  0.39769468796306645  0.6989963008399753  0.7253586695382205  1.0000
  N   N7        1.0  0.9423085537994763  0.6827523231868691  0.3786487827782  1.0000
  N   N8        1.0  0.05769144639333448  0.31724767712611396  0.6213512175682818  1.0000
  O   O1        1.0  0.4816305604183684  0.1973053771245135  0.1893442294695088  1.0000
  O   O2        1.0  0.5183694397744425  0.8026946231884695  0.8106557708769729  1.0000
  O   O3        1.0  0.3950672050753051  0.25662574339463695  0.918197805465284  1.0000
  O   O4        1.0  0.6049327952576447  0.7433742563175104  0.08180219422016431  1.0000
  P   P1        1.0  0.47557429658201994  0.2439597996453376  0.2688953770183099  1.0000
  P   P2        1.0  0.5244257036967663  0.7560402007905642  0.7311046226692208  1.0000
  S   S1        1.0  0.5446305743564609  0.36087993880800445  0.5959130596081266  1.0000
  S   S2        1.0  0.4553694250396339  0.6391200616370387  0.4040869400795746  1.0000
