data_image0
_chemical_formula_structural       H44C72N4O12F16Br4
_chemical_formula_sum              "H44 C72 N4 O12 F16 Br4"
_cell_length_a       3.838158667608337
_cell_length_b       17.24461999494037
_cell_length_c       24.439073951533558
_cell_angle_alpha    90.0
_cell_angle_beta     93.54312874908236
_cell_angle_gamma    90.0

_space_group_name_H-M_alt    "P 1"
_space_group_IT_number       1

loop_
  _space_group_symop_operation_xyz
  'x, y, z'

loop_
  _atom_site_type_symbol
  _atom_site_label
  _atom_site_symmetry_multiplicity
  _atom_site_fract_x
  _atom_site_fract_y
  _atom_site_fract_z
  _atom_site_occupancy
  H   H1        1.0  0.7880911231979321  0.4852187646033968  0.5854713181258732  1.0000
  H   H2        1.0  0.711908875766549  0.9852187647500986  0.9145286818838815  1.0000
  H   H3        1.0  0.2119088751940814  0.5147812356900068  0.41452868174320723  1.0000
  H   H4        1.0  0.28809112537838627  0.01478123554330496  0.08547131839746701  1.0000
  H   H5        1.0  0.835179175501904  0.4502538590167901  0.49029270649212725  1.0000
  H   H6        1.0  0.6648208260765901  0.9502538591634918  0.009707293345949004  1.0000
  H   H7        1.0  0.1648208254963933  0.5497461412766134  0.5097072933792633  1.0000
  H   H8        1.0  0.33517917492170707  0.04974614112991166  0.9902927065254417  1.0000
  H   H9        1.0  0.6450566851510516  0.32296787297337365  0.45451476261667995  1.0000
  H   H10       1.0  0.8549433138211587  0.8229678731200754  0.04548523721908606  1.0000
  H   H11       1.0  0.3549433158472456  0.6770321267401388  0.5454852372547107  1.0000
  H   H12       1.0  0.14505668457085474  0.17703212717332809  0.9545147626499944  1.0000
  H   H13       1.0  0.28715585819651446  0.27072622367844434  0.6155571823188402  1.0000
  H   H14       1.0  0.21284414222158587  0.7707262232452551  0.8844428175858648  1.0000
  H   H15       1.0  0.7128441428017828  0.7292737766149591  0.3844428175525504  1.0000
  H   H16       1.0  0.7871558587767113  0.2292737764682574  0.11555718228552583  1.0000
  H   H17       1.0  0.4958275327489749  0.4032677589903626  0.6446198190797234  1.0000
  H   H18       1.0  0.004172467669125502  0.9032677591370644  0.8553801808249817  1.0000
  H   H19       1.0  0.5041724656430386  0.5967322413030409  0.35538018078935696  1.0000
  H   H20       1.0  0.9958275333291717  0.09673224115633916  0.14461981904640903  1.0000
  H   H21       1.0  0.4200902704564442  0.19780613263735738  0.46843463506217553  1.0000
  H   H22       1.0  0.07990972736310172  0.6978061327840591  0.031565364666230646  1.0000
  H   H23       1.0  0.5799097279355694  0.8021938676560461  0.5315653648069049  1.0000
  H   H24       1.0  0.9200902710289118  0.30219386750934435  0.9684346352028498  1.0000
  H   H25       1.0  0.10741704620190938  0.16468749156741397  0.5793529885621627  1.0000
  H   H26       1.0  0.3925829517565454  0.6646874911342247  0.9206470117501901  1.0000
  H   H27       1.0  0.8925829523367422  0.8353125087259895  0.4206470117168757  1.0000
  H   H28       1.0  0.6074170467821062  0.33531250857928774  0.07935298852884827  1.0000
  H   H29       1.0  0.30020484099929107  0.08921748234819947  0.43838391998952736  1.0000
  H   H30       1.0  0.1997951594265386  0.5892174819150101  0.06161607974118907  1.0000
  H   H31       1.0  0.6997951599990063  0.910782517945204  0.5616160798818634  1.0000
  H   H32       1.0  0.8002048415717588  0.4107825177985023  0.9383839201302017  1.0000
  H   H33       1.0  0.4308786430228665  0.9803451189391349  0.6228566643236456  1.0000
  H   H34       1.0  0.06912135493558824  0.48034511937232416  0.8771433359887072  1.0000
  H   H35       1.0  0.5691213555157851  0.019654880774377544  0.37714333595539273  1.0000
  H   H36       1.0  0.9308786436030634  0.5196548809210793  0.12285666429033121  1.0000
  H   H37       1.0  0.6478778872164358  0.036872733071912425  0.6762909831273957  1.0000
  H   H38       1.0  0.8521221117480456  0.5368727332186142  0.823709016882359  1.0000
  H   H39       1.0  0.3521221111755778  0.9631272666416  0.3237090167416847  1.0000
  H   H40       1.0  0.14787788925025178  0.4631272664948983  0.17629098298903162  1.0000
  H   H41       1.0  0.8574011153799463  0.9532606508478092  0.6498966360377493  1.0000
  H   H42       1.0  0.6425988861908185  0.4532606507011075  0.8501033639743157  1.0000
  H   H43       1.0  0.14259888561835088  0.046739348865703266  0.35010336383364143  1.0000
  H   H44       1.0  0.3574011148074787  0.5467393490124051  0.14989663589707497  1.0000
  C   C1        1.0  0.24684837738644314  0.6379145120755119  0.7353019762473875  1.0000
  C   C2        1.0  0.2531516230316573  0.13791451192881005  0.7646980236573178  1.0000
  C   C3        1.0  0.7531516236118542  0.3620854876380007  0.26469802362400324  1.0000
  C   C4        1.0  0.7468483753603562  0.8620854877847024  0.23530197621176274  1.0000
  C   C5        1.0  0.3806358917133081  0.7068126600398392  0.758109416346706  1.0000
  C   C6        1.0  0.11936410870479226  0.20681265989313743  0.7418905835579989  1.0000
  C   C7        1.0  0.6193641092849892  0.2931873402535643  0.24189058352468443  1.0000
  C   C8        1.0  0.8806358922935049  0.793187339820375  0.25810941631339174  1.0000
  C   C9        1.0  0.3586668173653152  0.7766044252601293  0.7291246286792303  1.0000
  C   C10       1.0  0.1413331830527851  0.27660442511342764  0.7708753712254746  1.0000
  C   C11       1.0  0.641333183632982  0.2233955744533831  0.2708753711921602  1.0000
  C   C12       1.0  0.8586668153392284  0.7233955746000849  0.2291246286436058  1.0000
  C   C13       1.0  0.20148543985402909  0.7741247602972281  0.6761912294259079  1.0000
  C   C14       1.0  0.2985145605640713  0.2741247601505264  0.8238087704787972  1.0000
  C   C15       1.0  0.7985145611442681  0.22587523941628437  0.32380877044548273  1.0000
  C   C16       1.0  0.7014854404342259  0.725875239562986  0.17619122939259352  1.0000
  C   C17       1.0  0.06579970578133121  0.7054457131307791  0.6540344913299666  1.0000
  C   C18       1.0  0.43420029478340727  0.20544571298407735  0.8459655089846965  1.0000
  C   C19       1.0  0.9342002953636042  0.29455428716262444  0.34596550895138206  1.0000
  C   C20       1.0  0.5657997037552444  0.7945542867294351  0.15403449129434194  1.0000
  C   C21       1.0  0.0853599470683261  0.6350372947164423  0.6823179527342033  1.0000
  C   C22       1.0  0.4146400534964124  0.13503729456974053  0.8176820475804598  1.0000
  C   C23       1.0  0.9146400540766093  0.3649627055769612  0.31768204754714535  1.0000
  C   C24       1.0  0.585359947648523  0.864962705723663  0.18231795270088885  1.0000
  C   C25       1.0  0.9376376792404173  0.5602499233288213  0.6568925088352853  1.0000
  C   C26       1.0  0.5623623197240639  0.060249923182119546  0.8431074911744695  1.0000
  C   C27       1.0  0.06236231915159633  0.4397500769645822  0.34310749103379523  1.0000
  C   C28       1.0  0.43763767881458765  0.9397500765313929  0.15689250910456884  1.0000
  C   C29       1.0  0.7113610940129951  0.4089079406834667  0.5164583605990556  1.0000
  C   C30       1.0  0.7886389049514863  0.9089079408301685  0.9835416394106993  1.0000
  C   C31       1.0  0.2886389043790185  0.5910920590300458  0.48354163927002486  1.0000
  C   C32       1.0  0.21136109619344917  0.09109205888334404  0.016458360870649395  1.0000
  C   C33       1.0  0.6048360351568394  0.33728801688332666  0.49690817657905173  1.0000
  C   C34       1.0  0.895163963815371  0.8372880170300284  0.0030918232567142562  1.0000
  C   C35       1.0  0.3951639632351742  0.6627119828301857  0.5030918232900287  1.0000
  C   C36       1.0  0.10483603457664246  0.16271198326337505  0.9969081766123662  1.0000
  C   C37       1.0  0.4491489343204848  0.2837603131548113  0.531746480858424  1.0000
  C   C38       1.0  0.05085106624425365  0.7837603133015131  0.968253519456239  1.0000
  C   C39       1.0  0.5508510668244505  0.7162396865587012  0.4682535194229246  1.0000
  C   C40       1.0  0.9491489349006818  0.2162396864119994  0.03174648082510959  1.0000
  C   C41       1.0  0.40584264316468044  0.30828539692726253  0.5861951533304932  1.0000
  C   C42       1.0  0.09415735725341998  0.8082853970739643  0.9138048465742118  1.0000
  C   C43       1.0  0.5941573578336168  0.6917146027862499  0.4138048465408974  1.0000
  C   C44       1.0  0.9058426437448772  0.19171460263954818  0.08619515329717883  1.0000
  C   C45       1.0  0.5168528139332829  0.38097271392049126  0.6032630422210674  1.0000
  C   C46       1.0  0.9831471850311982  0.880972714067193  0.8967369577886872  1.0000
  C   C47       1.0  0.48314718445873067  0.6190272857930212  0.396736957648013  1.0000
  C   C48       1.0  0.01685281596709891  0.11902728622621052  0.10326304208270337  1.0000
  C   C49       1.0  0.34909539133244044  0.20847455096457934  0.5102726219237185  1.0000
  C   C50       1.0  0.15090460923229806  0.7084745511112811  0.9897273783909446  1.0000
  C   C51       1.0  0.6509046072062111  0.791525448748933  0.4897273783553199  1.0000
  C   C52       1.0  0.8490953919126373  0.2915254486022314  0.010272621890404008  1.0000
  C   C53       1.0  0.17938369930421003  0.15293577711621353  0.5377193016782971  1.0000
  C   C54       1.0  0.32061630126052854  0.6529357766830244  0.962280698636366  1.0000
  C   C55       1.0  0.8206163018407253  0.8470642231771899  0.46228069860305154  1.0000
  C   C56       1.0  0.6793836972781232  0.34706422303048823  0.037719301642672405  1.0000
  C   C57       1.0  0.08585058800228743  0.07672714796778421  0.5173398103511404  1.0000
  C   C58       1.0  0.414149412415813  0.5767271481144859  0.9826601895535646  1.0000
  C   C59       1.0  0.9141494129960098  0.9232728517457283  0.4826601895202503  1.0000
  C   C60       1.0  0.5858505859762005  0.4232728521789175  0.017339810315515715  1.0000
  C   C61       1.0  0.16636856566541847  0.050311925125317916  0.465110008406513  1.0000
  C   C62       1.0  0.33363143490704916  0.5503119252720197  0.03488999173416124  1.0000
  C   C63       1.0  0.833631432726595  0.9496880745881945  0.5348899914625674  1.0000
  C   C64       1.0  0.6663685662378862  0.44968807444149284  0.9651100085471874  1.0000
  C   C65       1.0  0.9134851657446748  0.024826486180942974  0.5522280677507456  1.0000
  C   C66       1.0  0.5865148332198065  0.5248264863276447  0.947771932259009  1.0000
  C   C67       1.0  0.08651483540026059  0.9751735135325694  0.44777193253060293  1.0000
  C   C68       1.0  0.41348516517220707  0.47517351396575874  0.05222806761007132  1.0000
  C   C69       1.0  0.6836204239758819  0.0023954908842363765  0.6396612550112255  1.0000
  C   C70       1.0  0.8163795775948831  0.5023954910309381  0.8603387450008394  1.0000
  C   C71       1.0  0.31637957702241537  0.9976045088292761  0.3603387448601651  1.0000
  C   C72       1.0  0.18362042340341417  0.4976045086825744  0.13966125487055123  1.0000
  N   N1        1.0  0.668363134750692  0.4298908976930248  0.5687131523532659  1.0000
  N   N2        1.0  0.8316368642137892  0.9298908978397266  0.9312868476564886  1.0000
  N   N3        1.0  0.33163686364132167  0.5701091020204876  0.4312868475158144  1.0000
  N   N4        1.0  0.16836313693114602  0.07010910187378593  0.06871315262485984  1.0000
  O   O1        1.0  0.9775612577712604  0.5527625052217314  0.605412066264816  1.0000
  O   O2        1.0  0.5224387411932209  0.05276250507502971  0.8945879337449386  1.0000
  O   O3        1.0  0.022438740767391246  0.447237495071672  0.39458793401422226  1.0000
  O   O4        1.0  0.4775612571987927  0.9472374952183737  0.1054120661241418  1.0000
  O   O5        1.0  0.7876515645608395  0.5142243820160598  0.6871555995709423  1.0000
  O   O6        1.0  0.7123484344036416  0.014224381869358104  0.8128444004388123  1.0000
  O   O7        1.0  0.21234843383117405  0.4857756176974527  0.3128444002981381  1.0000
  O   O8        1.0  0.28765156398837183  0.9857756178441545  0.18715559943026808  1.0000
  O   O9        1.0  0.835338671968166  0.053818307986624285  0.6016921127587439  1.0000
  O   O10       1.0  0.6646613296025989  0.5538183081333261  0.8983078872533211  1.0000
  O   O11       1.0  0.16466132903013123  0.9461816917268882  0.39830788711264675  1.0000
  O   O12       1.0  0.33533867154233643  0.44618169158018645  0.10169211302802753  1.0000
  F   F1        1.0  0.28420339012776996  0.5733805878529706  0.7661483749285443  1.0000
  F   F2        1.0  0.21579661029033037  0.0733805877062689  0.7338516249761606  1.0000
  F   F3        1.0  0.7157966082642435  0.42661941186054186  0.23385162494053607  1.0000
  F   F4        1.0  0.7842033907079669  0.9266194120072435  0.2661483748952299  1.0000
  F   F5        1.0  0.5354173567666541  0.7052662148292271  0.8095492609067055  1.0000
  F   F6        1.0  0.9645826421978271  0.20526621468252543  0.6904507391030493  1.0000
  F   F7        1.0  0.46458264423164314  0.29473378546417633  0.19045073896468517  1.0000
  F   F8        1.0  0.035417356340824505  0.7947337850309871  0.30954926117598913  1.0000
  F   F9        1.0  0.17508159815999108  0.8394002381175726  0.6451967919112722  1.0000
  F   F10       1.0  0.32491840225810925  0.3394002385507619  0.8548032079934328  1.0000
  F   F11       1.0  0.8249184028383062  0.1605997615959398  0.3548032079601185  1.0000
  F   F12       1.0  0.675081598740188  0.6605997617426416  0.14519679187795775  1.0000
  F   F13       1.0  0.9053208485204621  0.7102968759876321  0.6030293170333658  1.0000
  F   F14       1.0  0.5946791504440192  0.21029687584093038  0.8969706829763889  1.0000
  F   F15       1.0  0.09467915262447327  0.2897031243057714  0.39697068324798274  1.0000
  F   F16       1.0  0.4053208479479944  0.7897031244524731  0.10302931689269156  1.0000
  Br  Br1       1.0  0.5124800646047591  0.8714246642958261  0.7603124444962625  1.0000
  Br  Br2       1.0  0.9875199369660058  0.3714246641491243  0.7396875555158026  1.0000
  Br  Br3       1.0  0.48751993639353813  0.12857533541768645  0.23968755537512815  1.0000
  Br  Br4       1.0  0.012480064032291455  0.6285753355643882  0.2603124443555882  1.0000
