data_image0
_chemical_formula_structural       H56C48N8O8
_chemical_formula_sum              "H56 C48 N8 O8"
_cell_length_a       7.8341939370412
_cell_length_b       16.41776382234896
_cell_length_c       8.185369812652993
_cell_angle_alpha    90.0
_cell_angle_beta     90.33274190699804
_cell_angle_gamma    90.0

_space_group_name_H-M_alt    "P 1"
_space_group_IT_number       1

loop_
  _space_group_symop_operation_xyz
  'x, y, z'

loop_
  _atom_site_type_symbol
  _atom_site_label
  _atom_site_symmetry_multiplicity
  _atom_site_fract_x
  _atom_site_fract_y
  _atom_site_fract_z
  _atom_site_occupancy
  H   H1        1.0  0.15256879203623444  0.4955197582344101  0.808119951211513  1.0000
  H   H2        1.0  0.34743120784935483  0.9955197581628729  0.6918800479203338  1.0000
  H   H3        1.0  0.8474312082831862  0.5044802416225158  0.1918800490515598  1.0000
  H   H4        1.0  0.6525687924717123  0.004480241694052832  0.3081199511210573  1.0000
  H   H5        1.0  0.2439482114176897  0.3988693077120336  0.7741385938978337  1.0000
  H   H6        1.0  0.2560517884662531  0.8988693076404966  0.7258614064556949  1.0000
  H   H7        1.0  0.7560517876252548  0.6011306921448921  0.22586140635656834  1.0000
  H   H8        1.0  0.7439482118531676  0.10113069221642927  0.27413859380737793  1.0000
  H   H9        1.0  0.4464528422702733  0.424785596593032  0.2252479626356043  1.0000
  H   H10       1.0  0.05354715788861371  0.924785596521495  0.274752038106773  1.0000
  H   H11       1.0  0.5535471580491473  0.5752144032638937  0.7747520376274686  1.0000
  H   H12       1.0  0.9464528424308069  0.07521440333543088  0.7252479621562998  1.0000
  H   H13       1.0  0.13056429967520494  0.600355448930425  0.607932924651519  1.0000
  H   H14       1.0  0.3694357002087379  0.1003554483928658  0.8920670757020096  1.0000
  H   H15       1.0  0.8694356993677397  0.39964455153559714  0.392067075602883  1.0000
  H   H16       1.0  0.6305643001106828  0.89964455146406  0.10793292456106329  1.0000
  H   H17       1.0  0.3626115080280254  0.3661715404759598  0.49686346365796097  1.0000
  H   H18       1.0  0.13738849213250814  0.8661715404044227  0.003136535862734527  1.0000
  H   H19       1.0  0.6373884922930417  0.6338284599900623  0.50313653538343  1.0000
  H   H20       1.0  0.8626115081869125  0.13382846006159946  0.9968634644003384  1.0000
  H   H21       1.0  0.2255899358689999  0.6473440137768662  0.33312524669428417  1.0000
  H   H22       1.0  0.2744100642915337  0.14734401384840332  0.16687475282641137  1.0000
  H   H23       1.0  0.7744100644504207  0.3526559860800596  0.6668747535687887  1.0000
  H   H24       1.0  0.7255899360295334  0.8526559866176189  0.8331252462149796  1.0000
  H   H25       1.0  0.45962790503687057  0.32920502076187813  0.9105561316154971  1.0000
  H   H26       1.0  0.04037209612354819  0.829205020690341  0.5894438687467024  1.0000
  H   H27       1.0  0.5403720952825501  0.6707949790950477  0.0894438686475758  1.0000
  H   H28       1.0  0.9596279041958724  0.17079497916658481  0.4105561315163705  1.0000
  H   H29       1.0  0.12935399867627542  0.06401657322961951  0.34535051338683437  1.0000
  H   H30       1.0  0.3706460014826116  0.5640165731580824  0.15464948735554285  1.0000
  H   H31       1.0  0.8706460003666693  0.9359834272364026  0.6546494868675675  1.0000
  H   H32       1.0  0.629353998836809  0.4359834266988434  0.8453505129075299  1.0000
  H   H33       1.0  0.6418826783796298  0.2315387303126721  0.7898920564517967  1.0000
  H   H34       1.0  0.8581173221003244  0.7315387302411349  0.7101079433319716  1.0000
  H   H35       1.0  0.35811732193979084  0.7684612695442538  0.2101079438112761  1.0000
  H   H36       1.0  0.14188267822074274  0.2684612696157908  0.28989205570941945  1.0000
  H   H37       1.0  0.6652714104574566  0.11506033284682299  0.5966695417285917  1.0000
  H   H38       1.0  0.8347285900224976  0.6150603327752859  0.9033304580551768  1.0000
  H   H39       1.0  0.33472858986196397  0.8849396676191992  0.4033304585344812  1.0000
  H   H40       1.0  0.16527141029692305  0.3849396670816399  0.09666954220789606  1.0000
  H   H41       1.0  0.03175791455469091  0.30621519132565483  0.6266072247512406  1.0000
  H   H42       1.0  0.46824208533089845  0.8062151918632141  0.8733927743806063  1.0000
  H   H43       1.0  0.9682420857663763  0.693784808531271  0.3733927742901505  1.0000
  H   H44       1.0  0.5317579137120462  0.19378480860280808  0.12660722587379578  1.0000
  H   H45       1.0  0.03986059958337404  0.27368274319328895  0.8325463248379468  1.0000
  H   H46       1.0  0.46013940030056877  0.7736827431217518  0.6674536755155818  1.0000
  H   H47       1.0  0.9601394007360465  0.7263172566636369  0.16745367542512604  1.0000
  H   H48       1.0  0.5398606000188519  0.22631725673517394  0.3325463247474911  1.0000
  H   H49       1.0  0.9466286061841978  0.2103239623473861  0.6780437859777931  1.0000
  H   H50       1.0  0.5533713942957563  0.7103239622758489  0.8219562138059751  1.0000
  H   H51       1.0  0.053371394135222835  0.7896760375095397  0.32195621428527965  1.0000
  H   H52       1.0  0.44662860602531074  0.2896760375810768  0.17804378523541592  1.0000
  H   H53       1.0  0.40859590261059653  0.06095387233173281  0.4547975219952513  1.0000
  H   H54       1.0  0.0914040975499371  0.5609538722601958  0.04520247752544423  1.0000
  H   H55       1.0  0.5914040977088242  0.939046127525193  0.5452024782678215  1.0000
  H   H56       1.0  0.90859590277113  0.4390461275967301  0.9547975215159469  1.0000
  C   C1        1.0  0.24181646571741017  0.47916811540991294  0.578546060315823  1.0000
  C   C2        1.0  0.2581835341665326  0.9791681153383759  0.9214539400377054  1.0000
  C   C3        1.0  0.7581835333255345  0.5208318844470128  0.42145393993857894  1.0000
  C   C4        1.0  0.741816466152888  0.020831884518549903  0.07854606022536735  1.0000
  C   C5        1.0  0.37594905955730895  0.45968499252782036  0.3160241297535918  1.0000
  C   C6        1.0  0.12405093932510217  0.9596849930653796  0.1839758709801147  1.0000
  C   C7        1.0  0.6240509394856356  0.5403150073291054  0.6839758705008103  1.0000
  C   C8        1.0  0.8759490597178425  0.04031500740064256  0.8160241292742872  1.0000
  C   C9        1.0  0.20016648974653034  0.559531315555597  0.5273406321082864  1.0000
  C   C10       1.0  0.29983351013741244  0.05953131562713413  0.972659368245242  1.0000
  C   C11       1.0  0.7998335105728903  0.4404686843013288  0.4726593681547863  1.0000
  C   C12       1.0  0.7001664889055321  0.9404686842297917  0.027340632009159916  1.0000
  C   C13       1.0  0.32937399450944826  0.42865137092665984  0.46534386303756703  1.0000
  C   C14       1.0  0.17062600437296285  0.9286513714642192  0.03465613769613944  1.0000
  C   C15       1.0  0.6706260045334963  0.571348628930266  0.534656137216835  1.0000
  C   C16       1.0  0.8293739946699819  0.07134862900180307  0.9653438625582625  1.0000
  C   C17       1.0  0.2510074070400759  0.5859524307996545  0.3766899850244651  1.0000
  C   C18       1.0  0.24899259311881114  0.0859524302620953  0.12331001571791222  1.0000
  C   C19       1.0  0.7489925932793448  0.4140475696663676  0.6233100152386077  1.0000
  C   C20       1.0  0.7510074072006095  0.9140475695948305  0.8766899845451606  1.0000
  C   C21       1.0  0.5293710105507415  0.20786749687277006  0.7271965305758138  1.0000
  C   C22       1.0  0.9706289899292126  0.707867496801233  0.7728034692079545  1.0000
  C   C23       1.0  0.470628989768679  0.7921325029841557  0.27280346968725905  1.0000
  C   C24       1.0  0.02937101039185455  0.29213250305569277  0.22719652983343655  1.0000
  C   C25       1.0  0.23430378514542996  0.1469158617519265  0.5658322129724309  1.0000
  C   C26       1.0  0.26569621473851285  0.6469158616803894  0.9341677873810976  1.0000
  C   C27       1.0  0.7656962151739907  0.8530841381049993  0.4341677872906419  1.0000
  C   C28       1.0  0.7343037855809078  0.3530841381765364  0.06583221288197519  1.0000
  C   C29       1.0  0.22077413272900828  0.21381964364850672  0.6747454623704229  1.0000
  C   C30       1.0  0.2792258671549345  0.7138196435769696  0.8252545379831057  1.0000
  C   C31       1.0  0.7792258675904123  0.7861803562084191  0.32525453789264996  1.0000
  C   C32       1.0  0.720774133164486  0.2861803562799562  0.17474546227996712  1.0000
  C   C33       1.0  0.3688003800987699  0.24378242209525008  0.7526446439472232  1.0000
  C   C34       1.0  0.13119961978517286  0.7437824220237129  0.7473553564063052  1.0000
  C   C35       1.0  0.6311996189441746  0.7562175777616758  0.24735535630717875  1.0000
  C   C36       1.0  0.8688003805342478  0.25621757783321286  0.2526446438567675  1.0000
  C   C37       1.0  0.5408160873705532  0.14182208644215138  0.6208072064623238  1.0000
  C   C38       1.0  0.9591839118329251  0.6418220863706143  0.8791927933127736  1.0000
  C   C39       1.0  0.45918391294886746  0.8581779134147743  0.37919279380074894  1.0000
  C   C40       1.0  0.04081608721001958  0.35817791348631145  0.12080720694162836  1.0000
  C   C41       1.0  0.05086581658293595  0.25271219423635183  0.7057748335848958  1.0000
  C   C42       1.0  0.44913418330265337  0.7527121941648147  0.794225165546951  1.0000
  C   C43       1.0  0.9491341837381312  0.7472878056205741  0.2942251654564953  1.0000
  C   C44       1.0  0.5508658170184139  0.2472878056921111  0.20577483349444012  1.0000
  C   C45       1.0  0.3967474628879951  0.11089219090371338  0.541717073358699  1.0000
  C   C46       1.0  0.10325253699594765  0.6108921908321763  0.9582829269948294  1.0000
  C   C47       1.0  0.6032525374314256  0.8891078089532124  0.4582829269043738  1.0000
  C   C48       1.0  0.896747462046997  0.3891078090247495  0.04171707325957248  1.0000
  N   N1        1.0  0.33787127062197186  0.5371641994261691  0.2730747066406065  1.0000
  N   N2        1.0  0.16212872826208574  0.037164199497706184  0.2269252928714182  1.0000
  N   N3        1.0  0.6621287284209728  0.46283580043075667  0.7269252936137954  1.0000
  N   N4        1.0  0.8378712707808589  0.9628358003592196  0.7730747073829838  1.0000
  N   N5        1.0  0.19980444352694982  0.45348336841495546  0.7286194854810959  1.0000
  N   N6        1.0  0.30019555635699297  0.9534833683434183  0.7713805148724328  1.0000
  N   N7        1.0  0.8001955555159949  0.5465166314419704  0.2713805147733061  1.0000
  N   N8        1.0  0.6998044439624276  0.04651663151350745  0.22861948539064011  1.0000
  O   O1        1.0  0.09583679420841774  0.11806333925704347  0.48946618248276624  1.0000
  O   O2        1.0  0.40416320595211586  0.6180633391855064  0.010533817037929336  1.0000
  O   O3        1.0  0.9041632061110029  0.8819366605998823  0.5105338177803066  1.0000
  O   O4        1.0  0.5958367943673049  0.3819366606714194  0.9894661832251436  1.0000
  O   O5        1.0  0.3487660317906638  0.30894060694767084  0.8538961622438058  1.0000
  O   O6        1.0  0.15123396809492556  0.8089406068761338  0.646103836888041  1.0000
  O   O7        1.0  0.6512339685304034  0.6910593929092549  0.1461038367975853  1.0000
  O   O8        1.0  0.8487660309480191  0.19105939298079203  0.353896163366361  1.0000
