data_image0
_chemical_formula_structural       H16C44N24O8S8
_chemical_formula_sum              "H16 C44 N24 O8 S8"
_cell_length_a       12.275512219784213
_cell_length_b       6.6578792282228685
_cell_length_c       15.885130715206545
_cell_angle_alpha    90.0
_cell_angle_beta     113.36369312265215
_cell_angle_gamma    90.0

_space_group_name_H-M_alt    "P 1"
_space_group_IT_number       1

loop_
  _space_group_symop_operation_xyz
  'x, y, z'

loop_
  _atom_site_type_symbol
  _atom_site_label
  _atom_site_symmetry_multiplicity
  _atom_site_fract_x
  _atom_site_fract_y
  _atom_site_fract_z
  _atom_site_occupancy
  H   H1        1.0  0.37800293071923413  0.8984727215601213  0.711569283498537  1.0000
  H   H2        1.0  0.6219970694503695  0.39847272217765034  0.7884307163407018  1.0000
  H   H3        1.0  0.6219970696971785  0.10152727720482058  0.2884307164904215  1.0000
  H   H4        1.0  0.37800293096604315  0.6015272780892712  0.2115692836482567  1.0000
  H   H5        1.0  0.33662850438428016  0.5757497633406581  0.7860964914983094  1.0000
  H   H6        1.0  0.6633714957853234  0.07574976245620745  0.7139035083409294  1.0000
  H   H7        1.0  0.6633714960321324  0.42425023692626346  0.2139035084906491  1.0000
  H   H8        1.0  0.33662850374370407  0.9242502378107142  0.2860964913738922  1.0000
  H   H9        1.0  0.13027960328714705  0.4128286164081788  0.6934806434510206  1.0000
  H   H10       1.0  0.8697203968793628  0.9128286157906498  0.8065193570167859  1.0000
  H   H11       1.0  0.8697203971292655  0.5871713838587428  0.306519356537938  1.0000
  H   H12       1.0  0.13027960264657093  0.08717138447627189  0.19348064332660325  1.0000
  H   H13       1.0  0.026824631346619426  0.8699626054265388  0.565602313865507  1.0000
  H   H14       1.0  0.9731753679355988  0.3699626060440679  0.9343976856995951  1.0000
  H   H15       1.0  0.9731753681824079  0.13003739333840297  0.4343976858493147  1.0000
  H   H16       1.0  0.026824631593428468  0.6300373942228537  0.06560231401522655  1.0000
  C   C1        1.0  0.4765502420182352  0.9549892904406351  0.9571239072085196  1.0000
  C   C2        1.0  0.5234497581513684  0.4549892910581642  0.5428760926307195  1.0000
  C   C3        1.0  0.5234497583981774  0.04501070982628653  0.042876092780439065  1.0000
  C   C4        1.0  0.4765502422650442  0.5450107092087575  0.45712390735823916  1.0000
  C   C5        1.0  0.3787982175330592  0.7104773108452153  0.8232675133602371  1.0000
  C   C6        1.0  0.6212017826365444  0.21047731146274426  0.6767324864790019  1.0000
  C   C7        1.0  0.6212017819959682  0.28952268791972663  0.17673248635458466  1.0000
  C   C8        1.0  0.3787982177798682  0.7895226888041774  0.3232675135099566  1.0000
  C   C9        1.0  0.4004960102982573  0.877779103475857  0.7845808745272028  1.0000
  C   C10       1.0  0.5995039898682526  0.3777791025914063  0.7154191259406039  1.0000
  C   C11       1.0  0.5995039901150615  0.1222208967910646  0.21541912609032343  1.0000
  C   C12       1.0  0.40049600966077487  0.6222208961735355  0.2845808737742178  1.0000
  C   C13       1.0  0.07690217446343371  0.1519348166773533  0.6184223129626846  1.0000
  C   C14       1.0  0.9230978257030761  0.651934817561804  0.881577687505122  1.0000
  C   C15       1.0  0.9230978250655937  0.8480651835895683  0.38157768675213716  1.0000
  C   C16       1.0  0.07690217471024274  0.34806518270511766  0.11842231311240417  1.0000
  C   C17       1.0  0.09103942656422093  0.8431825657339908  0.708228971957818  1.0000
  C   C18       1.0  0.908960573602289  0.3431825663515198  0.7917710285099885  1.0000
  C   C19       1.0  0.908960573849098  0.1568174345329309  0.2917710286597082  1.0000
  C   C20       1.0  0.09103942681102997  0.6568174339154018  0.20822897210753763  1.0000
  C   C21       1.0  0.13914328981542254  0.9669725011996707  0.7914619310908696  1.0000
  C   C22       1.0  0.8608567094667959  0.46697250031522003  0.7085380684742325  1.0000
  C   C23       1.0  0.8608567097136048  0.033027499067250915  0.20853806862395205  1.0000
  C   C24       1.0  0.13914329006223158  0.5330274984497219  0.2914619312405892  1.0000
  C   C25       1.0  0.19503563322131165  0.007232236925519095  0.9451778862840953  1.0000
  C   C26       1.0  0.8049643669482919  0.50723223630799  0.5548221135551438  1.0000
  C   C27       1.0  0.8049643671951009  0.9927677633414026  0.05482211370486342  1.0000
  C   C28       1.0  0.19503563258073553  0.4927677639589316  0.4451778861596779  1.0000
  C   C29       1.0  0.2132691620663122  0.9296769178031724  0.03344736349845355  1.0000
  C   C30       1.0  0.7867308377095242  0.4296769184207015  0.4665526363660877  1.0000
  C   C31       1.0  0.7867308374627152  0.07032308246374926  0.9665526362163681  1.0000
  C   C32       1.0  0.21326916181640948  0.5703230818462202  0.5334473639773015  1.0000
  C   C33       1.0  0.22664627497523612  0.20928005784387263  0.9377712537646183  1.0000
  C   C34       1.0  0.7733537251943674  0.7092800572263436  0.5622287460746206  1.0000
  C   C35       1.0  0.7733537245537913  0.7907199424230489  0.062228745950203265  1.0000
  C   C36       1.0  0.22664627522204514  0.29071994153859826  0.437771253914338  1.0000
  C   C37       1.0  0.2780938812423906  0.32939289146363426  0.018101286067953425  1.0000
  C   C38       1.0  0.7219061185334458  0.8293928908461051  0.48189871379658783  1.0000
  C   C39       1.0  0.7219061182866369  0.6706071088032873  0.9818987136468682  1.0000
  C   C40       1.0  0.2780938818829667  0.17060710942081647  0.5181012861923708  1.0000
  C   C41       1.0  0.16177968537675033  0.17379025817938246  0.7835422676320893  1.0000
  C   C42       1.0  0.8382203147928532  0.6737902575618534  0.7164577322071496  1.0000
  C   C43       1.0  0.8382203150396621  0.8262097420875392  0.21645773235686921  1.0000
  C   C44       1.0  0.16177968562355938  0.32620974120308843  0.283542267781809  1.0000
  N   N1        1.0  0.13163235301886003  0.25805181666814225  0.6988228978147712  1.0000
  N   N2        1.0  0.8683676471476498  0.7580518160506132  0.8011771026530353  1.0000
  N   N3        1.0  0.8683676473944588  0.7419481835987795  0.301177102802755  1.0000
  N   N4        1.0  0.13163235238137758  0.24194818271432866  0.19882289706178627  1.0000
  N   N5        1.0  0.06352672558016081  0.9488495876015208  0.6273419926740987  1.0000
  N   N6        1.0  0.9364732745894427  0.4488495867170701  0.8726580071651403  1.0000
  N   N7        1.0  0.9364732748362516  0.05115041266540082  0.3726580073148599  1.0000
  N   N8        1.0  0.06352672582696987  0.5511504120478717  0.12734199282381828  1.0000
  N   N9        1.0  0.15457015211851785  0.8848768771632619  0.8724722217242519  1.0000
  N   N10       1.0  0.8454298480510857  0.38487687627881123  0.627527778114987  1.0000
  N   N11       1.0  0.8454298482978948  0.11512312310365969  0.12752777826470665  1.0000
  N   N12       1.0  0.15457015147794173  0.6151231239881104  0.3724722215998346  1.0000
  N   N13       1.0  0.23646350001642524  0.8765936779477783  0.10852312022569922  1.0000
  N   N14       1.0  0.7635364997594112  0.3765936770633277  0.39147687963884203  1.0000
  N   N15       1.0  0.7635364995095085  0.12340632231914325  0.89147688011769  1.0000
  N   N16       1.0  0.23646349976961623  0.623406323203594  0.6085231200759795  1.0000
  N   N17       1.0  0.3230361357192275  0.42201654666391103  0.08546515650103272  1.0000
  N   N18       1.0  0.6769638649439941  0.9220165460463821  0.4145348436376455  1.0000
  N   N19       1.0  0.6769638646971851  0.5779834536030105  0.9145348434879259  1.0000
  N   N20       1.0  0.32303613547241844  0.07798345422053966  0.5854651563513131  1.0000
  N   N21       1.0  0.2111173062684768  0.29328576909635645  0.856722802820329  1.0000
  N   N22       1.0  0.7888826939011268  0.7932857684788275  0.64327719701891  1.0000
  N   N23       1.0  0.7888826941479358  0.7067142311705652  0.14327719716862958  1.0000
  N   N24       1.0  0.21111730651528585  0.20671423178809425  0.35672280297004866  1.0000
  O   O1        1.0  0.043530053733651486  0.23597112476000137  0.5427506442706075  1.0000
  O   O2        1.0  0.9564699464359521  0.7359711241424723  0.9572493555686316  1.0000
  O   O3        1.0  0.9564699466827611  0.7640288755069203  0.4572493557183512  1.0000
  O   O4        1.0  0.04353005398046053  0.26402887612444936  0.04275064442032706  1.0000
  O   O5        1.0  0.07216371883087769  0.6605138286916358  0.7078463966540885  1.0000
  O   O6        1.0  0.9278362813356323  0.1605138293091649  0.792153603813718  1.0000
  O   O7        1.0  0.9278362806981496  0.33948617157528577  0.29215360306073307  1.0000
  O   O8        1.0  0.07216371907768673  0.8394861709577567  0.20784639680380826  1.0000
  S   S1        1.0  0.4676337620061776  0.07600232786665705  0.856811060593057  1.0000
  S   S2        1.0  0.5323662381634259  0.5760023287511078  0.643188939246182  1.0000
  S   S3        1.0  0.5323662375228497  0.9239976708982848  0.14318893912176464  1.0000
  S   S4        1.0  0.46763376225298675  0.4239976715158139  0.3568110607427767  1.0000
  S   S5        1.0  0.41751820627512265  0.7135584901962975  0.939924852730291  1.0000
  S   S6        1.0  0.5824817938913872  0.21355848931184676  0.5600751477375157  1.0000
  S   S7        1.0  0.5824817932508112  0.2864415100706242  0.06007514761309833  1.0000
  S   S8        1.0  0.4175182065219317  0.786441509453095  0.4399248528800106  1.0000
