data_image0
_chemical_formula_structural       H60C72N12O12
_chemical_formula_sum              "H60 C72 N12 O12"
_cell_length_a       29.402015190202942
_cell_length_b       4.512846358218765
_cell_length_c       11.37888971556855
_cell_angle_alpha    90.0
_cell_angle_beta     98.16866456819415
_cell_angle_gamma    90.0

_space_group_name_H-M_alt    "P 1"
_space_group_IT_number       1

loop_
  _space_group_symop_operation_xyz
  'x, y, z'

loop_
  _atom_site_type_symbol
  _atom_site_label
  _atom_site_symmetry_multiplicity
  _atom_site_fract_x
  _atom_site_fract_y
  _atom_site_fract_z
  _atom_site_occupancy
  H   H1        1.0  0.27914397293391086  0.10644084062937081  0.958878414993199  1.0000
  H   H2        1.0  0.7208560272262108  0.606440838610826  0.5411215849692121  1.0000
  H   H3        1.0  0.7208560272166511  0.8935591597653324  0.04112158492538735  1.0000
  H   H4        1.0  0.2791439729243512  0.3935591595679808  0.45887841494937437  1.0000
  H   H5        1.0  0.3635652427794149  0.011108080360126886  0.9631937648045437  1.0000
  H   H6        1.0  0.6364347570371265  0.5111080805574785  0.5368062350225684  1.0000
  H   H7        1.0  0.6364347570275669  0.9888919200345765  0.036806234978743683  1.0000
  H   H8        1.0  0.3635652427698553  0.48889191983722474  0.4631937647607188  1.0000
  H   H9        1.0  0.41898342822834195  0.25791940775475797  0.11474009576879311  1.0000
  H   H10       1.0  0.5810165715690802  0.7579194079521095  0.38525990397066934  1.0000
  H   H11       1.0  0.5810165715786398  0.7420805926399453  0.8852599040144942  1.0000
  H   H12       1.0  0.4189834282379016  0.24208059244259372  0.6147400958126179  1.0000
  H   H13       1.0  0.3394914546890983  0.8700376986797622  0.3334202096561776  1.0000
  H   H14       1.0  0.6605085454519041  0.370037700698307  0.1665797902185841  1.0000
  H   H15       1.0  0.6605085454614638  0.12996229949904464  0.6665797902624089  1.0000
  H   H16       1.0  0.3394914546986579  0.6299622996963963  0.8334202097000023  1.0000
  H   H17       1.0  0.2569321574241737  0.9965994924265886  0.3342810391076399  1.0000
  H   H18       1.0  0.7430678427168286  0.49659949222923694  0.1657189607671218  1.0000
  H   H19       1.0  0.7430678427263883  0.0034005079681146302  0.6657189608109466  1.0000
  H   H20       1.0  0.2569321574337333  0.5034005081654662  0.8342810391514646  1.0000
  H   H21       1.0  0.1959575692149519  0.7497164320336891  0.19433745576417708  1.0000
  H   H22       1.0  0.8040424305824703  0.2497164318363375  0.3056625439752854  1.0000
  H   H23       1.0  0.8040424305920298  0.2502835683610142  0.8056625440191102  1.0000
  H   H24       1.0  0.19595756922451152  0.7502835685583658  0.6943374558080019  1.0000
  H   H25       1.0  0.1357988073913847  0.17182142675605167  0.6449156002005703  1.0000
  H   H26       1.0  0.8642011927687369  0.6718214269534033  0.8550843997618411  1.0000
  H   H27       1.0  0.8642011927591773  0.8281785714227552  0.35508439971801625  1.0000
  H   H28       1.0  0.13579880738182507  0.32817857344129997  0.14491560015674543  1.0000
  H   H29       1.0  0.071444937357444  0.33527546251257806  0.494386672578835  1.0000
  H   H30       1.0  0.9285550627835584  0.8352754627099297  0.005613327295926733  1.0000
  H   H31       1.0  0.928555062793118  0.6647245378821252  0.5056133273397515  1.0000
  H   H32       1.0  0.07144493736700364  0.16472453768477355  0.9943866726226599  1.0000
  H   H33       1.0  0.01672932039787806  0.723803453678681  0.5455411526783297  1.0000
  H   H34       1.0  0.9832706797622436  0.22380345348132938  0.9544588472840815  1.0000
  H   H35       1.0  0.9832706797526839  0.2761965467160223  0.4544588472402568  1.0000
  H   H36       1.0  0.01672932038831843  0.7761965469133739  0.04554115263450487  1.0000
  H   H37       1.0  0.025450122976957975  0.9268436188576397  0.7509395780646615  1.0000
  H   H38       1.0  0.9745498768395834  0.426843618660288  0.7490604217624506  1.0000
  H   H39       1.0  0.9745498768300238  0.07315637932116721  0.24906042171862575  1.0000
  H   H40       1.0  0.02545012296739834  0.5731563795185188  0.2509395780208367  1.0000
  H   H41       1.0  0.08821247630554098  0.7461039957338558  0.9034079565350455  1.0000
  H   H42       1.0  0.9117875235110003  0.2461039955365042  0.5965920432920666  1.0000
  H   H43       1.0  0.9117875235014409  0.2538960046608475  0.09659204324824192  1.0000
  H   H44       1.0  0.08821247629240127  0.7538960026423027  0.40340795736867885  1.0000
  H   H45       1.0  0.2081857391058687  0.12565172952704184  0.020754873419455658  1.0000
  H   H46       1.0  0.7918142606879733  0.6256517297243935  0.47924512719746504  1.0000
  H   H47       1.0  0.791814260697533  0.8743482708676614  0.9792451272412899  1.0000
  H   H48       1.0  0.20818573911542834  0.3743482706703098  0.5207548734632804  1.0000
  H   H49       1.0  0.15711516731730651  0.1143421621390342  0.8713358819947501  1.0000
  H   H50       1.0  0.8428848328428151  0.6143421623363858  0.6286641179676612  1.0000
  H   H51       1.0  0.8428848328332554  0.8856578382556691  0.1286641179238363  1.0000
  H   H52       1.0  0.15711516730774688  0.38565783805831744  0.3713358819509253  1.0000
  H   H53       1.0  0.512749307860578  0.4087799946125649  0.8775730349605196  1.0000
  H   H54       1.0  0.4872506919559634  0.9087799948099164  0.6224269648665923  1.0000
  H   H55       1.0  0.4872506919464038  0.5912200057821384  0.1224269648227676  1.0000
  H   H56       1.0  0.5127493078474383  0.09122000558478668  0.3775730357941531  1.0000
  H   H57       1.0  0.41308537899435654  0.8226939619246003  0.7529881696110364  1.0000
  H   H58       1.0  0.5869146208221848  0.32269396172724873  0.7470118302160755  1.0000
  H   H59       1.0  0.5869146208126254  0.1773060384701029  0.24701183017225076  1.0000
  H   H60       1.0  0.4130853789847969  0.6773060386674545  0.2529881695672117  1.0000
  C   C1        1.0  0.29015958430921235  0.4160650576061512  0.10730845149898985  1.0000
  C   C2        1.0  0.7098404158282099  0.9160650578035028  0.3926915492532301  1.0000
  C   C3        1.0  0.7098404158377696  0.5839349427885521  0.8926915492970547  1.0000
  C   C4        1.0  0.290159584322352  0.08393494259120043  0.6073084506653564  1.0000
  C   C5        1.0  0.30444402083427397  0.21630453211025985  0.023784262111438075  1.0000
  C   C6        1.0  0.6955559789595681  0.7163045323076115  0.47621573850548254  1.0000
  C   C7        1.0  0.6955559789691277  0.7836954682844435  0.9762157385493074  1.0000
  C   C8        1.0  0.3044440208474136  0.2836954680870918  0.5237842612778045  1.0000
  C   C9        1.0  0.35043033822492564  0.16101342973413407  0.025077618137302363  1.0000
  C   C10       1.0  0.6495696619160767  0.6610134299314857  0.4749223817374593  1.0000
  C   C11       1.0  0.6495696619256363  0.8389865706605691  0.974922381781284  1.0000
  C   C12       1.0  0.35043033823448533  0.33898657046321756  0.5250776181811271  1.0000
  C   C13       1.0  0.38238532565337957  0.3026060409774315  0.11125007213771168  1.0000
  C   C14       1.0  0.6176146744876226  0.8026060411747832  0.38874992773704997  1.0000
  C   C15       1.0  0.6176146741536022  0.6973939594172718  0.8887499276455755  1.0000
  C   C16       1.0  0.38238532566293915  0.19739395921992015  0.6112500721815365  1.0000
  C   C17       1.0  0.32491013190680285  0.5547322667967161  0.1902807182796394  1.0000
  C   C18       1.0  0.6750898682341996  0.054732266599364365  0.30971928159512224  1.0000
  C   C19       1.0  0.675089868243759  0.4452677335979873  0.809719281638947  1.0000
  C   C20       1.0  0.3249101319163624  0.9452677337953389  0.6902807183234642  1.0000
  C   C21       1.0  0.3123621438520408  0.7648632406272304  0.2722236397008511  1.0000
  C   C22       1.0  0.6876378559453814  0.26486324042987885  0.22777636003861126  1.0000
  C   C23       1.0  0.687637855954941  0.23513675976747278  0.7277763600824361  1.0000
  C   C24       1.0  0.3123621438616004  0.7351367599648244  0.7722236397446759  1.0000
  C   C25       1.0  0.26662472260063885  0.8330323440224158  0.27208081539914286  1.0000
  C   C26       1.0  0.7333752771967834  0.3330323438250641  0.22791918434031963  1.0000
  C   C27       1.0  0.7333752772063429  0.16696765637228755  0.7279191843841444  1.0000
  C   C28       1.0  0.2666247226101985  0.6669676565696392  0.7720808154429676  1.0000
  C   C29       1.0  0.23189893116412258  0.6954487347623237  0.19212549831153958  1.0000
  C   C30       1.0  0.7681010689768799  0.19544873456497203  0.3078745015632221  1.0000
  C   C31       1.0  0.7681010689864394  0.3045512656323796  0.8078745016070469  1.0000
  C   C32       1.0  0.23189893117368218  0.8045512658297312  0.6921254983553644  1.0000
  C   C33       1.0  0.2432287698952563  0.49037289646915194  0.11062530383477809  1.0000
  C   C34       1.0  0.7567712298985858  0.9903728966665037  0.3893746967821426  1.0000
  C   C35       1.0  0.7567712299081454  0.5096271039255512  0.8893746968259675  1.0000
  C   C36       1.0  0.243228769908396  0.009627103728199632  0.6106253030011446  1.0000
  C   C37       1.0  0.17915236187534633  0.5101167439054225  0.9483687974335435  1.0000
  C   C38       1.0  0.8208476379411951  0.01011674592396722  0.5516312023935686  1.0000
  C   C39       1.0  0.8208476379316354  0.48988325427338436  0.05163120234974374  1.0000
  C   C40       1.0  0.1791523622093669  0.9898832544707361  0.448368797525018  1.0000
  C   C41       1.0  0.11623799584536512  0.4511870576519406  0.7830313287222728  1.0000
  C   C42       1.0  0.8837620043147565  0.9511870578492921  0.7169686712401384  1.0000
  C   C43       1.0  0.8837620043051968  0.5488129427427627  0.21696867119631366  1.0000
  C   C44       1.0  0.1162379958358055  0.04881294254541104  0.28303132867844805  1.0000
  C   C45       1.0  0.11132617756243962  0.33604015506492146  0.6676661984477973  1.0000
  C   C46       1.0  0.8886738225941019  0.836040155262273  0.8323338023920722  1.0000
  C   C47       1.0  0.8886738225845422  0.6639598453297818  0.3323338023482474  1.0000
  C   C48       1.0  0.11132617755287999  0.16395984513243014  0.1676661984039725  1.0000
  C   C49       1.0  0.0752501263250977  0.4309764737409918  0.5831998882630354  1.0000
  C   C50       1.0  0.9247498734914437  0.9309764739383434  0.9168001115640767  1.0000
  C   C51       1.0  0.9247498734818841  0.5690235266537115  0.41680011152025187  1.0000
  C   C52       1.0  0.07525012631553808  0.06902352645635983  0.0831998882192106  1.0000
  C   C53       1.0  0.04449332640426499  0.6458587637693091  0.6121250963205361  1.0000
  C   C54       1.0  0.9555066734122764  0.14585876357195743  0.8878749035065758  1.0000
  C   C55       1.0  0.9555066734027168  0.3541412366253942  0.3878749034627511  1.0000
  C   C56       1.0  0.04449332639470535  0.8541412368227459  0.11212509627671136  1.0000
  C   C57       1.0  0.04946436280931522  0.7606536224634297  0.727334816109318  1.0000
  C   C58       1.0  0.9505356370072262  0.2606536222660781  0.7726651837177939  1.0000
  C   C59       1.0  0.9505356369976665  0.23934637793127356  0.27266518367396914  1.0000
  C   C60       1.0  0.0494643631433358  0.7393463781286252  0.22733481620079254  1.0000
  C   C61       1.0  0.08482826476588888  0.6622474161029533  0.8129720800024947  1.0000
  C   C62       1.0  0.9151717353906528  0.1622474159056017  0.6870279208373751  1.0000
  C   C63       1.0  0.9151717353810931  0.33775258429174987  0.1870279207935502  1.0000
  C   C64       1.0  0.08482826475632925  0.8377525844891015  0.31297207995866977  1.0000
  C   C65       1.0  0.44984322418230477  0.667051831826195  0.8960865001474486  1.0000
  C   C66       1.0  0.5501567756342366  0.16705183162884335  0.6039134996796635  1.0000
  C   C67       1.0  0.550156775624677  0.3329481685685083  0.10391349963583858  1.0000
  C   C68       1.0  0.44984322417274514  0.8329481687658599  0.3960865001036239  1.0000
  C   C69       1.0  0.4929384024746775  0.509269103703129  0.9413886134637309  1.0000
  C   C70       1.0  0.5070615976854441  0.009269103505777327  0.5586113864986804  1.0000
  C   C71       1.0  0.5070615976758844  0.49073089669157427  0.058611386454855516  1.0000
  C   C72       1.0  0.49293840246511783  0.990730896888926  0.4413886134199061  1.0000
  N   N1        1.0  0.37043137573899665  0.4921079189756772  0.19018081759153296  1.0000
  N   N2        1.0  0.6295686243984255  0.992107919173029  0.309819183160687  1.0000
  N   N3        1.0  0.6295686244115652  0.507892081419026  0.8098191823270535  1.0000
  N   N4        1.0  0.3704313757485563  0.007892081221674396  0.6901808176353578  1.0000
  N   N5        1.0  0.2088547984696825  0.3526561229148877  0.028970972303751827  1.0000
  N   N6        1.0  0.7911452016713197  0.8526561231122394  0.4710290275710098  1.0000
  N   N7        1.0  0.7911452016808795  0.6473438774798156  0.9710290276148346  1.0000
  N   N8        1.0  0.20885479847924213  0.14734387728246395  0.5289709723475766  1.0000
  N   N9        1.0  0.15145977975299818  0.3397907148350708  0.8684293985694936  1.0000
  N   N10       1.0  0.8485402204071235  0.8397907150324224  0.6315706013929177  1.0000
  N   N11       1.0  0.8485402203975638  0.6602092855596325  0.13157060134909282  1.0000
  N   N12       1.0  0.15145977974343852  0.16020928536228085  0.36842939852566886  1.0000
  O   O1        1.0  0.1784286927555271  0.7877824831163156  0.9471282402753162  1.0000
  O   O2        1.0  0.8215713074045946  0.28778248291896386  0.5528717596870952  1.0000
  O   O3        1.0  0.8215713073950348  0.21221751727838775  0.052871759643270365  1.0000
  O   O4        1.0  0.17842869274596748  0.7122175174757394  0.4471282402314913  1.0000
  O   O5        1.0  0.42220772765653874  0.7522940003966837  0.961109800926523  1.0000
  O   O6        1.0  0.5777922721600027  0.25229400019933207  0.5388901989005891  1.0000
  O   O7        1.0  0.577792272150443  0.2477059999980196  0.03889019885676433  1.0000
  O   O8        1.0  0.42220772764697917  0.7477060001953713  0.4611098008826981  1.0000
  O   O9        1.0  0.4438995700053399  0.7060140268674197  0.7788904299718241  1.0000
  O   O10       1.0  0.5561004301547817  0.20601402888596443  0.7211095699905872  1.0000
  O   O11       1.0  0.556100430145222  0.2939859713113872  0.22110956994676229  1.0000
  O   O12       1.0  0.4438995699957803  0.7939859715087388  0.2788904299279994  1.0000
