data_image0
_chemical_formula_structural       H48C56N12
_chemical_formula_sum              "H48 C56 N12"
_cell_length_a       6.558708426667433
_cell_length_b       21.61330267796879
_cell_length_c       7.972890469254273
_cell_angle_alpha    90.0
_cell_angle_beta     100.10053388978795
_cell_angle_gamma    90.0

_space_group_name_H-M_alt    "P 1"
_space_group_IT_number       1

loop_
  _space_group_symop_operation_xyz
  'x, y, z'

loop_
  _atom_site_type_symbol
  _atom_site_label
  _atom_site_symmetry_multiplicity
  _atom_site_fract_x
  _atom_site_fract_y
  _atom_site_fract_z
  _atom_site_occupancy
  H   H1        1.0  0.23281336086488225  0.13420297458549238  0.5249270279315823  1.0000
  H   H2        1.0  0.2671866392064952  0.6342029746324823  0.9750729713913389  1.0000
  H   H3        1.0  0.7671866394145234  0.8657970250458092  0.4750729709288023  1.0000
  H   H4        1.0  0.732813361069897  0.36579702499881944  0.024927028722858874  1.0000
  H   H5        1.0  0.11902558907295792  0.06087528776160417  0.5427681651047556  1.0000
  H   H6        1.0  0.380974410995406  0.560875287808594  0.9572318354719787  1.0000
  H   H7        1.0  0.8809744112034343  0.9391247123323755  0.4572318350094421  1.0000
  H   H8        1.0  0.6190255892809862  0.4391247122853857  0.04276816464221915  1.0000
  H   H9        1.0  0.9613963149668346  0.12815713180306576  0.5204115440953507  1.0000
  H   H10       1.0  0.5386036854477535  0.6281571318500556  0.979588456075946  1.0000
  H   H11       1.0  0.038603685309557476  0.871842868290914  0.47958845601884703  1.0000
  H   H12       1.0  0.4613963148286386  0.3718428682439241  0.020411544038251832  1.0000
  H   H13       1.0  0.045766768699603805  0.21893392604099232  0.3706974894248142  1.0000
  H   H14       1.0  0.45423323143859223  0.7189339260879821  0.12930251063228468  1.0000
  H   H15       1.0  0.9542332315767883  0.7810660740529873  0.6293025106893835  1.0000
  H   H16       1.0  0.5457667688377998  0.28106607400599753  0.8706974894819131  1.0000
  H   H17       1.0  0.02739479249129587  0.2453505264332123  0.16491661949221792  1.0000
  H   H18       1.0  0.47260520764690017  0.7453505264802023  0.33508338056488096  1.0000
  H   H19       1.0  0.9726052077850963  0.7546494736607674  0.8350833806219798  1.0000
  H   H20       1.0  0.527394792629492  0.2546494736137775  0.6649166195493168  1.0000
  H   H21       1.0  0.8677685420920338  0.2301305642228411  0.9100903040048095  1.0000
  H   H22       1.0  0.6322314583225545  0.730130564269831  0.589909696166487  1.0000
  H   H23       1.0  0.13223145818435827  0.7698694358711385  0.08990969610938815  1.0000
  H   H24       1.0  0.36776854195383785  0.26986943582414874  0.4100903039477108  1.0000
  H   H25       1.0  0.9593127128365669  0.18569458910558248  0.7526202225394546  1.0000
  H   H26       1.0  0.5406872875780213  0.6856945891525723  0.7473797776318419  1.0000
  H   H27       1.0  0.04068728743982524  0.8143054109883973  0.24737977757474308  1.0000
  H   H28       1.0  0.45931271269837076  0.31430541094140735  0.25262022248235577  1.0000
  H   H29       1.0  0.1377824906097183  0.2256204483255903  0.9085939989420276  1.0000
  H   H30       1.0  0.3622175094616591  0.7256204483725801  0.5914060003808935  1.0000
  H   H31       1.0  0.8622175096666739  0.7743795517683894  0.09140600117217021  1.0000
  H   H32       1.0  0.637782490814733  0.2743795517213995  0.4085939997333042  1.0000
  H   H33       1.0  0.9619433934976775  0.07991218490455707  0.7957600175435252  1.0000
  H   H34       1.0  0.5380566069169107  0.5799121849515468  0.7042399826277715  1.0000
  H   H35       1.0  0.0380566067787147  0.9200878151894227  0.20423998257067258  1.0000
  H   H36       1.0  0.46194339335948137  0.42008781514243276  0.29576001748642633  1.0000
  H   H37       1.0  0.06602697384835937  0.0003395927086831407  0.30170920000316326  1.0000
  H   H38       1.0  0.4339730262898367  0.500339592755673  0.19829080005393557  1.0000
  H   H39       1.0  0.9339730264280328  0.9996604073852965  0.6982908001110344  1.0000
  H   H40       1.0  0.5660269739865554  0.4996604073383067  0.8017092000602621  1.0000
  H   H41       1.0  0.5416572135553435  0.9976935922884382  0.3164022674225285  1.0000
  H   H42       1.0  0.9583427853773735  0.49769359224144827  0.18359773325707768  1.0000
  H   H43       1.0  0.45834278672104867  0.0023064078055415826  0.6835977326916693  1.0000
  H   H44       1.0  0.041657213350328785  0.5023064078525314  0.8164022666312518  1.0000
  H   H45       1.0  0.4913882312806778  0.09964473926492012  0.8417322903809622  1.0000
  H   H46       1.0  0.00861176878768614  0.599644738849232  0.6582677101957721  1.0000
  H   H47       1.0  0.5086117674470245  0.9003552608290596  0.1582677095073674  1.0000
  H   H48       1.0  0.9913882314887059  0.4003552607820697  0.34173228991842564  1.0000
  C   C1        1.0  0.04646476048885284  0.039971957218765584  0.21627383470775713  1.0000
  C   C2        1.0  0.4535352396493432  0.5399719572657554  0.28372616534934175  1.0000
  C   C3        1.0  0.9535352397875393  0.9600280428752141  0.7837261654064406  1.0000
  C   C4        1.0  0.5464647606270489  0.46002804282822424  0.7162738347648561  1.0000
  C   C5        1.0  0.05956515723543775  0.09801047630537695  0.28986984151336836  1.0000
  C   C6        1.0  0.4404348429027583  0.5980104763523668  0.2101301585437305  1.0000
  C   C7        1.0  0.9404348430409544  0.9019895237886028  0.7101301586008294  1.0000
  C   C8        1.0  0.5595651558249439  0.4019895237416129  0.789869841344599  1.0000
  C   C9        1.0  0.007987642572564776  0.14331893446148283  0.9998046070851372  1.0000
  C   C10       1.0  0.49201235749579914  0.6433189345084727  0.500195393491597  1.0000
  C   C11       1.0  0.9920123577038275  0.8566810656324968  0.0001953930290605098  1.0000
  C   C12       1.0  0.5079876427805929  0.356681065585507  0.49980460662260073  1.0000
  C   C13       1.0  0.9916519504487031  0.08435944830673846  0.9336667088521378  1.0000
  C   C14       1.0  0.5083480484171953  0.5843594483537283  0.5663332910932909  1.0000
  C   C15       1.0  0.00834804827899915  0.9156405517872414  0.0663332910361919  1.0000
  C   C16       1.0  0.49165195031050707  0.4156405517402514  0.4336667087950388  1.0000
  C   C17       1.0  0.03794630439774215  0.1511553041511853  0.1808885163813344  1.0000
  C   C18       1.0  0.46205369574045396  0.6511553041981751  0.3191114836757645  1.0000
  C   C19       1.0  0.9620536958786501  0.8488446959427944  0.8191114837328634  1.0000
  C   C20       1.0  0.5379463045359382  0.3488446958958045  0.6808885164384334  1.0000
  C   C21       1.0  0.992515081903146  0.19891080387183244  0.8870766165729649  1.0000
  C   C22       1.0  0.5074849185114423  0.6989108039188222  0.6129233835983318  1.0000
  C   C23       1.0  0.007484918373246233  0.8010891962221474  0.1129233835412329  1.0000
  C   C24       1.0  0.49251508176494985  0.30108919617515745  0.38707661651586595  1.0000
  C   C25       1.0  0.09507026886943278  0.10594926208728807  0.47916644209764  1.0000
  C   C26       1.0  0.4049297312687633  0.6059492621342779  0.020833557959458897  1.0000
  C   C27       1.0  0.9049297314069594  0.8940507380066915  0.5208335580165577  1.0000
  C   C28       1.0  0.5950702690076288  0.3940507379597018  0.9791664421547389  1.0000
  C   C29       1.0  0.009284081264618816  0.0304925512689825  0.037265992406986234  1.0000
  C   C30       1.0  0.49071591887357724  0.5304925513159724  0.4627340076501127  1.0000
  C   C31       1.0  0.9907159190117734  0.9695074488249973  0.9627340077072114  1.0000
  C   C32       1.0  0.5092840814028149  0.4695074487780073  0.5372659924640851  1.0000
  C   C33       1.0  0.5249444337147863  0.998579626703693  0.17791294798661988  1.0000
  C   C34       1.0  0.9750555652179308  0.4985796266567031  0.32208705269298626  1.0000
  C   C35       1.0  0.47505556501291607  0.0014203729276087238  0.8220870519017097  1.0000
  C   C36       1.0  0.024944433509771522  0.5014203729745985  0.6779129471953432  1.0000
  C   C37       1.0  0.5385918000392618  0.11305374178147752  0.18575358445606457  1.0000
  C   C38       1.0  0.9614082004421451  0.6130537418284674  0.31424641644940976  1.0000
  C   C39       1.0  0.46140820023713036  0.8869462583125022  0.8142464156581332  1.0000
  C   C40       1.0  0.03859179983424701  0.3869462582655124  0.685753583664788  1.0000
  C   C41       1.0  0.5309383357092403  0.1711597952020011  0.10600213852212965  1.0000
  C   C42       1.0  0.96906166477518  0.6711597952489909  0.39399786112953156  1.0000
  C   C43       1.0  0.4690616645671518  0.8288402044293005  0.893997861592068  1.0000
  C   C44       1.0  0.03093833550121216  0.3288402048449887  0.6060021389846663  1.0000
  C   C45       1.0  0.5692309736080279  0.11449795882063543  0.3651787589663809  1.0000
  C   C46       1.0  0.9307690253277026  0.6144979588676253  0.13482124045941213  1.0000
  C   C47       1.0  0.4307690251196744  0.8855020412733442  0.6348212409219488  1.0000
  C   C48       1.0  0.0692309749486896  0.3855020412263544  0.8651787596547855  1.0000
  C   C49       1.0  0.49333644578376257  0.056132393927776  0.9110280840089591  1.0000
  C   C50       1.0  0.006663552738924975  0.5561323939747659  0.588971915088094  1.0000
  C   C51       1.0  0.5066635529469531  0.9438676061662038  0.08897191462555747  1.0000
  C   C52       1.0  0.9933364459887774  0.44386760611921383  0.4110280848002356  1.0000
  C   C53       1.0  0.5189949807587759  0.05655619542338624  0.09239007444045291  1.0000
  C   C54       1.0  0.9810050197256444  0.556556195470376  0.4076099252112083  1.0000
  C   C55       1.0  0.4810050195176162  0.9434438046705934  0.9076099256737449  1.0000
  C   C56       1.0  0.018994980550747772  0.44344380462360355  0.5923900749029894  1.0000
  N   N1        1.0  0.04596700573663108  0.2087058057350042  0.245451877645192  1.0000
  N   N2        1.0  0.45403299440156497  0.708705805781994  0.2545481224119069  1.0000
  N   N3        1.0  0.954032994539761  0.7912941943589754  0.7545481224690056  1.0000
  N   N4        1.0  0.5459670058748272  0.29129419431198567  0.7454518777022908  1.0000
  N   N5        1.0  0.5252744969131369  0.22043817832878085  0.04386206400070693  1.0000
  N   N6        1.0  0.9747255035712834  0.7204381783757706  0.4561379356509543  1.0000
  N   N7        1.0  0.47472550336325525  0.7795618217651988  0.9561379361134908  1.0000
  N   N8        1.0  0.025274496705108736  0.27956182171820904  0.5438620644632436  1.0000
  N   N9        1.0  0.5969686627539357  0.11674775241879597  0.5146450956603871  1.0000
  N   N10       1.0  0.9030313376606525  0.6167477524657857  0.9853549045109096  1.0000
  N   N11       1.0  0.40303133752245646  0.8832522476751837  0.4853549044538107  1.0000
  N   N12       1.0  0.0969686626157396  0.3832522476281938  0.014645095603288217  1.0000
