data_image0
_chemical_formula_structural       H48C56N12
_chemical_formula_sum              "H48 C56 N12"
_cell_length_a       6.796227226379962
_cell_length_b       20.362998666984716
_cell_length_c       8.077717426201623
_cell_angle_alpha    89.99989694505898
_cell_angle_beta     97.77506753270096
_cell_angle_gamma    89.99996683550926

_space_group_name_H-M_alt    "P 1"
_space_group_IT_number       1

loop_
  _space_group_symop_operation_xyz
  'x, y, z'

loop_
  _atom_site_type_symbol
  _atom_site_label
  _atom_site_symmetry_multiplicity
  _atom_site_fract_x
  _atom_site_fract_y
  _atom_site_fract_z
  _atom_site_occupancy
  H   H1        1.0  0.5522966643407498  0.2666376400537669  0.76178124121568  1.0000
  H   H2        1.0  0.05229284599413715  0.7333638808048897  0.26177977930963886  1.0000
  H   H3        1.0  0.6672956343149375  0.16989656004737608  0.9252013018077372  1.0000
  H   H4        1.0  0.16729356955306943  0.8301041899801925  0.42520055597531675  1.0000
  H   H5        1.0  0.60701586298441  0.275484299221762  0.38254148098086155  1.0000
  H   H6        1.0  0.10701424905251837  0.7245151917653743  0.8825405012947782  1.0000
  H   H7        1.0  0.49792395382204757  0.3729404425363564  0.219770139983783  1.0000
  H   H8        1.0  0.9979216410534804  0.6270595954373229  0.7197688604770685  1.0000
  H   H9        1.0  0.21536540923865952  0.15056599683569427  0.8740225560302322  1.0000
  H   H10       1.0  0.7153681757528367  0.8494354839107232  0.37402402230861764  1.0000
  H   H11       1.0  0.31211765204722286  0.04219465529183942  0.8343966279297022  1.0000
  H   H12       1.0  0.8121188647004686  0.957806729359321  0.33439798734388104  1.0000
  H   H13       1.0  0.23223802679911068  0.985945288344785  0.9775940319429686  1.0000
  H   H14       1.0  0.73223832235082  0.014055839253328302  0.47759539650745686  1.0000
  H   H15       1.0  0.48423070401476254  0.011591441290316251  0.9999500054017187  1.0000
  H   H16       1.0  0.9842316996362496  0.9884098327762034  0.4999512290249819  1.0000
  H   H17       1.0  0.34132953718115566  0.002078454918274085  0.43793674266565075  1.0000
  H   H18       1.0  0.8413289199426549  0.9979217657879423  0.9379378129598723  1.0000
  H   H19       1.0  0.3594103421968691  0.9762520063632776  0.23707122428587638  1.0000
  H   H20       1.0  0.8594093803822358  0.023748100850757896  0.7370716063526467  1.0000
  H   H21       1.0  0.24285278092290766  0.16515665986640995  0.6021076784674192  1.0000
  H   H22       1.0  0.7428535538941304  0.8348426720656272  0.10210885770730292  1.0000
  H   H23       1.0  0.4196038571325346  0.10119224286815301  0.5958496401854388  1.0000
  H   H24       1.0  0.9196046815379193  0.8988073731018342  0.09585038362580746  1.0000
  H   H25       1.0  0.16210838084305806  0.08256985278276864  0.5741215526522032  1.0000
  H   H26       1.0  0.6621081069362745  0.9174297946675856  0.07412208139593705  1.0000
  H   H27       1.0  0.16860007287787887  0.22693668248499754  0.36666127755460126  1.0000
  H   H28       1.0  0.668601342792356  0.7730634658546786  0.8666616325047763  1.0000
  H   H29       1.0  0.11912400397273805  0.31235691031892726  0.27170576049597595  1.0000
  H   H30       1.0  0.619127259676267  0.6876424763961985  0.7717041150723054  1.0000
  H   H31       1.0  0.0321522695946628  0.4206371375317243  0.31284621899079834  1.0000
  H   H32       1.0  0.5321529357119148  0.5793623579486931  0.8128453563063861  1.0000
  H   H33       1.0  0.8320180060371727  0.44814339931412306  0.16630927651491598  1.0000
  H   H34       1.0  0.3320197973124089  0.5518569957680303  0.6663014894732432  1.0000
  H   H35       1.0  0.07670068291744069  0.4754836607954068  0.15155214509737905  1.0000
  H   H36       1.0  0.5767024367209221  0.5245168586130232  0.6515465799225678  1.0000
  H   H37       1.0  0.8976307492316064  0.4515963171108413  0.7043168367367056  1.0000
  H   H38       1.0  0.3976304333571839  0.5484064127413385  0.20431211457064397  1.0000
  H   H39       1.0  0.9103436920390057  0.4803213961033298  0.9068519166720506  1.0000
  H   H40       1.0  0.4103434927273024  0.5196807881740292  0.406847844108005  1.0000
  H   H41       1.0  0.7954506511014281  0.35225366589713913  0.567433118085365  1.0000
  H   H42       1.0  0.295446775400167  0.6477498198112651  0.06743274509450808  1.0000
  H   H43       1.0  0.9601477255656886  0.28602459784686346  0.5418912363831964  1.0000
  H   H44       1.0  0.46014116456465465  0.7139796353534419  0.04188856580126553  1.0000
  H   H45       1.0  0.047549289197221165  0.36836863839348516  0.5498157095586993  1.0000
  H   H46       1.0  0.547547230083147  0.6316363206943559  0.049811324954964535  1.0000
  H   H47       1.0  0.07018287839359617  0.2268147360730121  0.7772200750292063  1.0000
  H   H48       1.0  0.5701787118198886  0.773187371344984  0.27722122575700425  1.0000
  C   C1        1.0  0.5149002107121589  0.3276123918386746  0.9766558317401104  1.0000
  C   C2        1.0  0.014898127712925728  0.6723878938691277  0.4766546487016387  1.0000
  C   C3        1.0  0.5631050033998998  0.2683563397344691  0.8976453474201975  1.0000
  C   C4        1.0  0.06310242158825176  0.7316448058653903  0.3976447165578915  1.0000
  C   C5        1.0  0.6267050019339931  0.21390616858103034  0.9895573948105293  1.0000
  C   C6        1.0  0.12670350536874797  0.7860947621570704  0.48955668585515605  1.0000
  C   C7        1.0  0.6443331857923662  0.21463038769302392  0.16769289406518928  1.0000
  C   C8        1.0  0.14433195023449077  0.7853698026665195  0.6676919215744528  1.0000
  C   C9        1.0  0.5956059417854339  0.27377913491007017  0.2467516392220199  1.0000
  C   C10       1.0  0.0956039060193315  0.726220709305628  0.7467501356819037  1.0000
  C   C11       1.0  0.5337948293502858  0.3285040016563108  0.15488605743544417  1.0000
  C   C12       1.0  0.03379237049781653  0.6714959882751275  0.6548844950918733  1.0000
  C   C13       1.0  0.711582597599708  0.15815990359280924  0.2627074692653969  1.0000
  C   C14       1.0  0.21158277064593978  0.8418397861076514  0.7627072141273616  1.0000
  C   C15       1.0  0.7664480417221224  0.10043638678067722  0.1853917952971283  1.0000
  C   C16       1.0  0.26644856323107163  0.8995633273861318  0.6853907066406248  1.0000
  C   C17       1.0  0.739963840391311  0.15707490392422685  0.4388395572966911  1.0000
  C   C18       1.0  0.23996443437117332  0.8429246908192414  0.9388390554893485  1.0000
  C   C19       1.0  0.4522281988631011  0.3842153137783488  0.8801204537838176  1.0000
  C   C20       1.0  0.9522264492420256  0.6157854739913683  0.3801189405489688  1.0000
  C   C21       1.0  0.4343379612046624  0.3848560953319334  0.7041729711708112  1.0000
  C   C22       1.0  0.9343361526318338  0.6151448922041574  0.2041715484095366  1.0000
  C   C23       1.0  0.41663050956061415  0.4444723762780686  0.9550693885074707  1.0000
  C   C24       1.0  0.9166296653412193  0.5555287118752654  0.45506817504561947  1.0000
  C   C25       1.0  0.22541883348824032  0.14453750907523  0.008642757079359888  1.0000
  C   C26       1.0  0.7254204541391314  0.8554633573998088  0.5086436698948756  1.0000
  C   C27       1.0  0.2833351822146309  0.08408061646418052  0.07454955519545355  1.0000
  C   C28       1.0  0.783335618816314  0.9159202005438708  0.5745507689833617  1.0000
  C   C29       1.0  0.32997235559186217  0.028330430726731585  0.9662573854377604  1.0000
  C   C30       1.0  0.8299732461182024  0.9716708025382413  0.46625895878831447  1.0000
  C   C31       1.0  0.2967928008072492  0.07419185143055615  0.2511056475616039  1.0000
  C   C32       1.0  0.796792513227531  0.9258085939037535  0.7511065784088805  1.0000
  C   C33       1.0  0.2573369559573385  0.12775064107638717  0.35647986291498246  1.0000
  C   C34       1.0  0.7573377157303843  0.8722493899931985  0.8564801736607504  1.0000
  C   C35       1.0  0.27147300760919885  0.11855630454907921  0.5416249741634992  1.0000
  C   C36       1.0  0.771473414320116  0.881443264754103  0.041625839875632765  1.0000
  C   C37       1.0  0.20123596798148263  0.18742794447618089  0.2836776971407428  1.0000
  C   C38       1.0  0.7012373320375804  0.8125723384796382  0.7836775931487615  1.0000
  C   C39       1.0  0.1794719115485842  0.19828719409968476  0.10860116786255969  1.0000
  C   C40       1.0  0.6794723177913365  0.8017130854783079  0.6086010852228393  1.0000
  C   C41       1.0  0.11205765181137091  0.260368393353194  0.03512955029491277  1.0000
  C   C42       1.0  0.6120559966282618  0.7396327827188304  0.5351272822942513  1.0000
  C   C43       1.0  0.08565916027404262  0.3159153136823041  0.13643819704969634  1.0000
  C   C44       1.0  0.5856605573449646  0.6840851458562309  0.6364354639644041  1.0000
  C   C45       1.0  0.01905699576688673  0.3755539443782539  0.07110508097518058  1.0000
  C   C46       1.0  0.519057300781376  0.6244470668829574  0.5711020379792673  1.0000
  C   C47       1.0  0.9886864413780574  0.43262718270440564  0.18106374984582732  1.0000
  C   C48       1.0  0.4886881492123596  0.5673735661418599  0.6810589749476613  1.0000
  C   C49       1.0  0.9781212687489289  0.3828768445420701  0.8935631861010523  1.0000
  C   C50       1.0  0.4781217628782018  0.6171246199441363  0.3935609330109979  1.0000
  C   C51       1.0  0.9998396297090372  0.3276742553470569  0.7874212437211452  1.0000
  C   C52       1.0  0.4998396568049196  0.6723272258175558  0.2874183492065878  1.0000
  C   C53       1.0  0.9476243542101107  0.33384619273556554  0.6019802592651431  1.0000
  C   C54       1.0  0.4476213010213981  0.6661572658213327  0.1019773034630762  1.0000
  C   C55       1.0  0.06448040155877664  0.268761441466574  0.859934136651106  1.0000
  C   C56       1.0  0.5644767859103202  0.7312404097045039  0.35993260542792926  1.0000
  N   N1        1.0  0.8135588859051757  0.05207561873346861  0.12269891306607773  1.0000
  N   N2        1.0  0.3135594652148046  0.9479244656848766  0.6226992100469256  1.0000
  N   N3        1.0  0.7674685712300156  0.15424363810388367  0.5854131780454093  1.0000
  N   N4        1.0  0.2674694338945691  0.8457550470336868  0.0854134148201561  1.0000
  N   N5        1.0  0.4187881847251219  0.3866292323682779  0.5576627087966851  1.0000
  N   N6        1.0  0.9187848733555845  0.6133716640328439  0.05766117925023592  1.0000
  N   N7        1.0  0.38792233132168663  0.4954056074722783  0.01505623185306076  1.0000
  N   N8        1.0  0.8879222849839226  0.5045952580150938  0.5150573334602807  1.0000
  N   N9        1.0  0.3446875838632057  0.014339462776378842  0.3152520320289977  1.0000
  N   N10       1.0  0.8446879816384126  0.9856607531828164  0.8152534086217662  1.0000
  N   N11       1.0  0.9128117397538243  0.44114449826246716  0.8295727453866154  1.0000
  N   N12       1.0  0.4128115614657383  0.5588575619163053  0.3295686628570331  1.0000
