data_image0
_chemical_formula_structural       H20C16O12S2
_chemical_formula_sum              "H20 C16 O12 S2"
_cell_length_a       6.051211325080212
_cell_length_b       8.191296456525714
_cell_length_c       10.45326216342183
_cell_angle_alpha    78.41180485013355
_cell_angle_beta     77.39700125873067
_cell_angle_gamma    86.06109641282798

_space_group_name_H-M_alt    "P 1"
_space_group_IT_number       1

loop_
  _space_group_symop_operation_xyz
  'x, y, z'

loop_
  _atom_site_type_symbol
  _atom_site_label
  _atom_site_symmetry_multiplicity
  _atom_site_fract_x
  _atom_site_fract_y
  _atom_site_fract_z
  _atom_site_occupancy
  H   H1        1.0  0.05847575907821856  0.9279920030784381  0.8126834352466773  1.0000
  H   H2        1.0  0.9415242408976725  0.07200799652061465  0.1873165647868373  1.0000
  H   H3        1.0  0.6795117796431344  0.9335467668026081  0.9679150004262708  1.0000
  H   H4        1.0  0.3204882203327567  0.06645323279644465  0.03208499960724383  1.0000
  H   H5        1.0  0.49039161000874526  0.625768850858585  0.8987614479250305  1.0000
  H   H6        1.0  0.5096083899194968  0.3742311499870943  0.10123855191645603  1.0000
  H   H7        1.0  0.2561380658821299  0.8392439156473369  0.256382415840081  1.0000
  H   H8        1.0  0.7438619340461119  0.16075608519834228  0.7436175840014057  1.0000
  H   H9        1.0  0.4175071991270229  0.1628773142009283  0.5230859360944335  1.0000
  H   H10       1.0  0.5824928008012189  0.837122686644751  0.47691406374705303  1.0000
  H   H11       1.0  0.3841878315524179  0.29631318471448614  0.3701290093407765  1.0000
  H   H12       1.0  0.6158121684295277  0.7036868148869434  0.6298709916482305  1.0000
  H   H13       1.0  0.26800243067658325  0.08926987704057184  0.4130991034041686  1.0000
  H   H14       1.0  0.7319975692516586  0.9107301238051075  0.586900896437318  1.0000
  H   H15       1.0  0.8771594845014077  0.17252446565691765  0.3893791779737337  1.0000
  H   H16       1.0  0.12284051547448326  0.8274755339421352  0.6106208220597809  1.0000
  H   H17       1.0  0.984146216485785  0.3798368854984315  0.3212682505150153  1.0000
  H   H18       1.0  0.015853783442456793  0.6201631153472479  0.6787317493264713  1.0000
  H   H19       1.0  0.7267792053811905  0.35540510171186146  0.44428871884338283  1.0000
  H   H20       1.0  0.2732207945947006  0.6445948978871914  0.5557112811901318  1.0000
  C   C1        1.0  0.13871625554729022  0.608072566265403  0.06901702284490226  1.0000
  C   C2        1.0  0.8612837443809517  0.3919274345802764  0.9309829769965844  1.0000
  C   C3        1.0  0.1866925742824794  0.7249932477629248  0.9426079181238609  1.0000
  C   C4        1.0  0.8133074256457624  0.2750067530827544  0.05739208171762566  1.0000
  C   C5        1.0  0.02313213048923518  0.8398391143976977  0.9074628591776298  1.0000
  C   C6        1.0  0.9768678694866559  0.16016088520135532  0.0925371408558848  1.0000
  C   C7        1.0  0.8098207782462341  0.8436836119026272  0.994987948641745  1.0000
  C   C8        1.0  0.19017922168200765  0.15631638894305208  0.0050120511997416226  1.0000
  C   C9        1.0  0.7666863692079989  0.7347446066962434  0.11407397811049551  1.0000
  C   C10       1.0  0.23331363072024294  0.26525539414943594  0.8859260217309911  1.0000
  C   C11       1.0  0.5543953936328531  0.7257502053349207  0.21753489553536304  1.0000
  C   C12       1.0  0.4456046062953887  0.2742497955107586  0.7824651043061235  1.0000
  C   C13       1.0  0.30691785361926904  0.19699324932506002  0.45135996808955775  1.0000
  C   C14       1.0  0.693082146356622  0.8030067502739928  0.5486400319439568  1.0000
  C   C15       1.0  0.8912571350136578  0.2972762000843898  0.4095983466494415  1.0000
  C   C16       1.0  0.10874286496223338  0.7027237995146629  0.5904016533840731  1.0000
  O   O1        1.0  0.27082290611793947  0.49800536811923996  0.109910928750858  1.0000
  O   O2        1.0  0.7291770938579516  0.5019946314798128  0.8900890712826565  1.0000
  O   O3        1.0  0.3906158818408981  0.7176078854112558  0.8627172400466707  1.0000
  O   O4        1.0  0.6093841181349929  0.282392114187797  0.13728275998684394  1.0000
  O   O5        1.0  0.9286925478020419  0.6199482100740108  0.1490562329586832  1.0000
  O   O6        1.0  0.07130745217384905  0.380051789525042  0.8509437670748312  1.0000
  O   O7        1.0  0.39961625176923493  0.8380094180358585  0.17958888406003112  1.0000
  O   O8        1.0  0.6003837482066562  0.16199058156319437  0.8204111159734834  1.0000
  O   O9        1.0  0.5284258475662919  0.6273061970394254  0.3253150936834665  1.0000
  O   O10       1.0  0.4715741524095992  0.37269380255962736  0.6746849063500481  1.0000
  O   O11       1.0  0.9511681688035848  0.12688174105322134  0.6458494256416669  1.0000
  O   O12       1.0  0.04883183117230627  0.8731182585458315  0.35415057439184766  1.0000
  S   S1        1.0  0.0480501660346559  0.27781786970136835  0.5387728783855203  1.0000
  S   S2        1.0  0.9519498339412352  0.7221821298976844  0.46122712164799423  1.0000
