data_image0
_chemical_formula_structural       H36C60N8O8Cl4
_chemical_formula_sum              "H36 C60 N8 O8 Cl4"
_cell_length_a       8.70245330405558
_cell_length_b       11.20811389833934
_cell_length_c       12.639009883786574
_cell_angle_alpha    90.0
_cell_angle_beta     104.92347352357069
_cell_angle_gamma    90.0

_space_group_name_H-M_alt    "P 1"
_space_group_IT_number       1

loop_
  _space_group_symop_operation_xyz
  'x, y, z'

loop_
  _atom_site_type_symbol
  _atom_site_label
  _atom_site_symmetry_multiplicity
  _atom_site_fract_x
  _atom_site_fract_y
  _atom_site_fract_z
  _atom_site_occupancy
  H   H1        1.0  0.02951117804559452  0.7600633065713409  0.19194037490153112  1.0000
  H   H2        1.0  0.4704888219666529  0.2600633064972579  0.3080596250638743  1.0000
  H   H3        1.0  0.9704888219789003  0.239936693576825  0.8080596250292797  1.0000
  H   H4        1.0  0.529511178057842  0.739936693650908  0.6919403748669366  1.0000
  H   H5        1.0  0.08459066153126821  0.974609779939736  0.7484366090888536  1.0000
  H   H6        1.0  0.4154093377371669  0.474609779865653  0.751563390816661  1.0000
  H   H7        1.0  0.9154093384932265  0.02539022020842994  0.25156339084195734  1.0000
  H   H8        1.0  0.5845906622873279  0.5253902202825128  0.24843660911414997  1.0000
  H   H9        1.0  0.4153659374531243  0.9486969481614086  0.06755179219226949  1.0000
  H   H10       1.0  0.0846340625591231  0.44869694808732563  0.4324482077731359  1.0000
  H   H11       1.0  0.5846340625713705  0.051303051094546505  0.9324482077385414  1.0000
  H   H12       1.0  0.9153659374653716  0.5513030511686294  0.5675517921576749  1.0000
  H   H13       1.0  0.5183073524718076  0.7135711487715162  0.9040960914655419  1.0000
  H   H14       1.0  0.9816926475649347  0.21357114869743327  0.5959039084306744  1.0000
  H   H15       1.0  0.4816926475526871  0.28642885137664964  0.095903908465269  1.0000
  H   H16       1.0  0.0183073524595602  0.7864288514507325  0.4040960915001364  1.0000
  H   H17       1.0  0.2189616417292967  0.8472387706023379  0.14056556737540818  1.0000
  H   H18       1.0  0.2810383582829507  0.347238770528255  0.3594344325899973  1.0000
  H   H19       1.0  0.7810383582951981  0.15276122954582788  0.8594344325554027  1.0000
  H   H20       1.0  0.7189616417415441  0.6527612296199108  0.6405655673408136  1.0000
  H   H21       1.0  0.35090541299880545  0.01510587432780155  0.8699511297676309  1.0000
  H   H22       1.0  0.14909458626962963  0.5151058744018845  0.6300488701378837  1.0000
  H   H23       1.0  0.6490945870256893  0.9848941258203643  0.13004887016318012  1.0000
  H   H24       1.0  0.8509054137548652  0.4848941257462813  0.3699511297929271  1.0000
  H   H25       1.0  0.5344437544693383  0.6553594963991514  0.09514358636477065  1.0000
  H   H26       1.0  0.9655562463112162  0.15535949721727926  0.4048564135913367  1.0000
  H   H27       1.0  0.46555624555515634  0.34464050285680364  0.9048564135660402  1.0000
  H   H28       1.0  0.034443753713278624  0.8446405029308865  0.5951435863394743  1.0000
  H   H29       1.0  0.7945002891772607  0.6767724836490008  0.23784402857725118  1.0000
  H   H30       1.0  0.7054997116032937  0.1767724835749179  0.2621559713788561  1.0000
  H   H31       1.0  0.20549971084723398  0.32322751649916504  0.7621559713535596  1.0000
  H   H32       1.0  0.294500288421201  0.8232275165732479  0.7378440285519549  1.0000
  H   H33       1.0  0.6724749851163684  0.3936955039914249  0.7797963556072397  1.0000
  H   H34       1.0  0.8275250149203738  0.8936955040655077  0.7202036442889769  1.0000
  H   H35       1.0  0.32752501490812647  0.606304496156741  0.22020364432357137  1.0000
  H   H36       1.0  0.17247498510412088  0.10630449608265807  0.2797963556418341  1.0000
  C   C1        1.0  0.0026979256190893864  0.8836266636679524  0.8749489676118294  1.0000
  C   C2        1.0  0.4973020751023404  0.38362666359386954  0.6250510331147913  1.0000
  C   C3        1.0  0.9973020744054053  0.11637333648021336  0.1250510323189815  1.0000
  C   C4        1.0  0.5026979252251959  0.6163733365542963  0.3749489676348359  1.0000
  C   C5        1.0  0.9408396143535194  0.5218211996281165  0.8826035955149002  1.0000
  C   C6        1.0  0.5591603856832228  0.021821199554033582  0.617396404381316  1.0000
  C   C7        1.0  0.059160385670975334  0.4781788005200493  0.1173964044159106  1.0000
  C   C8        1.0  0.44083961434127206  0.9781788005941322  0.3826035955494949  1.0000
  C   C9        1.0  0.8376079378054887  0.4601400768031217  0.9492146193365705  1.0000
  C   C10       1.0  0.6623920622312535  0.9601400768772046  0.5507853805596459  1.0000
  C   C11       1.0  0.16239206221900607  0.5398599233450441  0.05078538059424037  1.0000
  C   C12       1.0  0.3376079377932413  0.03985992327096121  0.4492146193711651  1.0000
  C   C13       1.0  0.9093625187947721  0.789913088883918  0.020568416444430478  1.0000
  C   C14       1.0  0.590637480835829  0.2899130897020459  0.47943158350938686  1.0000
  C   C15       1.0  0.09063748122972254  0.21008691037203708  0.9794315834863805  1.0000
  C   C16       1.0  0.4093625191886657  0.7100869104461199  0.5205684164214239  1.0000
  C   C17       1.0  0.10037174497144519  0.5522604111756142  0.9380052253887872  1.0000
  C   C18       1.0  0.3996282554469431  0.052260411101531255  0.5619947745190172  1.0000
  C   C19       1.0  0.8996282550530496  0.44773958897255167  0.06199477454202376  1.0000
  C   C20       1.0  0.6003717445775517  0.9477395890466346  0.43800522541179365  1.0000
  C   C21       1.0  0.036091487620479513  0.8464743832952755  0.9861120972701672  1.0000
  C   C22       1.0  0.4639085116479555  0.3464743832211926  0.5138879026353474  1.0000
  C   C23       1.0  0.9639085124040153  0.1535256168528903  0.01388790266064374  1.0000
  C   C24       1.0  0.5360914883765392  0.6535256169269732  0.48611209729546356  1.0000
  C   C25       1.0  0.7620433726838167  0.7740153632169436  0.9395646695524204  1.0000
  C   C26       1.0  0.7379566273529253  0.27401536314286085  0.560435330343796  1.0000
  C   C27       1.0  0.23795662734067802  0.22598463693122206  0.06043533037839051  1.0000
  C   C28       1.0  0.26204337267156935  0.725984637005305  0.43956466958701496  1.0000
  C   C29       1.0  0.11588702593758689  0.9447923340223174  0.8333501814058717  1.0000
  C   C30       1.0  0.3841129744808014  0.4447923339482345  0.6666498185019327  1.0000
  C   C31       1.0  0.8841129740869079  0.055207666125848445  0.16664981852493915  1.0000
  C   C32       1.0  0.6158870255436935  0.5552076653077206  0.33335018142887823  1.0000
  C   C33       1.0  0.9183890307734897  0.7524758203295566  0.12837832207551472  1.0000
  C   C34       1.0  0.5816109700070647  0.2524758202554737  0.3716216778805925  1.0000
  C   C35       1.0  0.0816109692510051  0.24752417981860922  0.8716216778552962  1.0000
  C   C36       1.0  0.41838903001743  0.7475241798926922  0.6283783220502184  1.0000
  C   C37       1.0  0.18839923722223584  0.8710475900362249  0.054264412705647795  1.0000
  C   C38       1.0  0.31160076279001153  0.37104758996214193  0.4457355872597577  1.0000
  C   C39       1.0  0.8116007628022589  0.1289524092197302  0.9457355872251632  1.0000
  C   C40       1.0  0.6883992372344833  0.6289524092938131  0.5542644126710532  1.0000
  C   C41       1.0  0.2640136639604779  0.9669949046115466  0.9022216823855612  1.0000
  C   C42       1.0  0.2359863364579104  0.4669949045374637  0.5977783175222433  1.0000
  C   C43       1.0  0.7359863360640169  0.033005095536619254  0.09777831754524977  1.0000
  C   C44       1.0  0.7640136635665845  0.5330050956107021  0.4022216824085676  1.0000
  C   C45       1.0  0.7857100698209492  0.7050016908884882  0.154068477160223  1.0000
  C   C46       1.0  0.7142899298096521  0.20500169081440525  0.34593152279359435  1.0000
  C   C47       1.0  0.21428993020354556  0.2949983092596776  0.8459315227705879  1.0000
  C   C48       1.0  0.2857100702148426  0.7949983093337606  0.6540684771372165  1.0000
  C   C49       1.0  0.6284669465675392  0.7242276268447535  0.9677677532237701  1.0000
  C   C50       1.0  0.871533053469203  0.22422762677067065  0.5322322466724464  1.0000
  C   C51       1.0  0.3715330534569556  0.27577237330341225  0.032232246707040925  1.0000
  C   C52       1.0  0.12846694655529178  0.7757723733774952  0.4677677532583645  1.0000
  C   C53       1.0  0.2997599414770903  0.9297812606583209  0.012516552370696918  1.0000
  C   C54       1.0  0.20024005853515717  0.429781260584238  0.4874834475947086  1.0000
  C   C55       1.0  0.7002400585474046  0.07021873948984489  0.987483447560114  1.0000
  C   C56       1.0  0.7997599414893376  0.5702187395639278  0.5125165523361024  1.0000
  C   C57       1.0  0.6392300579017397  0.6917899327512033  0.0744717268049056  1.0000
  C   C58       1.0  0.8607699428788147  0.19178993267712044  0.4255282731512017  1.0000
  C   C59       1.0  0.36076994212275504  0.30821006739696244  0.9255282731259055  1.0000
  C   C60       1.0  0.13923005714568  0.8082100674710454  0.5744717267796091  1.0000
  N   N1        1.0  0.8559315566275795  0.8607332926398423  0.805978667849178  1.0000
  N   N2        1.0  0.6440684434091626  0.3607332925657595  0.6940213320470383  1.0000
  N   N3        1.0  0.1440684433969152  0.13926670750832346  0.19402133208163289  1.0000
  N   N4        1.0  0.35593155661533216  0.6392667075824064  0.30597866788377254  1.0000
  N   N5        1.0  0.7401159733297248  0.8081592426841842  0.8332251085464843  1.0000
  N   N6        1.0  0.7598840267070173  0.3081592426101012  0.6667748913497319  1.0000
  N   N7        1.0  0.2598840266947699  0.19184075746398171  0.16677489138432647  1.0000
  N   N8        1.0  0.24011597331747744  0.6918407575380646  0.333225108581079  1.0000
  O   O1        1.0  0.700856402828984  0.4225602436732668  0.8965660085894805  1.0000
  O   O2        1.0  0.7991435972077582  0.9225602437473497  0.6034339913067358  1.0000
  O   O3        1.0  0.29914359719551076  0.5774397564748991  0.10343399134133031  1.0000
  O   O4        1.0  0.2008564028167366  0.07743975640081611  0.39656600862407515  1.0000
  O   O5        1.0  0.8774762372981068  0.5435141385298191  0.7841965195761361  1.0000
  O   O6        1.0  0.6225237627386354  0.04351413845573626  0.7158034803200802  1.0000
  O   O7        1.0  0.12252376272638808  0.45648586161834664  0.2158034803546748  1.0000
  O   O8        1.0  0.3774762372858593  0.9564858616924297  0.28419651961073067  1.0000
  Cl  Cl1       1.0  0.21569563584441245  0.6190121043495077  0.8614263674378361  1.0000
  Cl  Cl2       1.0  0.28430436342402254  0.11901210427542484  0.6385736324676785  1.0000
  Cl  Cl3       1.0  0.7843043641800822  0.38098789579865805  0.13857363249297494  1.0000
  Cl  Cl4       1.0  0.7156956366004722  0.880987895872741  0.3614263674631323  1.0000
