data_image0
_chemical_formula_structural       H36C36N4O8Cl8
_chemical_formula_sum              "H36 C36 N4 O8 Cl8"
_cell_length_a       7.420355526001336
_cell_length_b       10.278689291288401
_cell_length_c       13.038461112395492
_cell_angle_alpha    90.0
_cell_angle_beta     96.33194935278144
_cell_angle_gamma    90.0

_space_group_name_H-M_alt    "P 1"
_space_group_IT_number       1

loop_
  _space_group_symop_operation_xyz
  'x, y, z'

loop_
  _atom_site_type_symbol
  _atom_site_label
  _atom_site_symmetry_multiplicity
  _atom_site_fract_x
  _atom_site_fract_y
  _atom_site_fract_z
  _atom_site_occupancy
  H   H1        1.0  0.5723542495071414  0.09630415142901178  0.728658779097163  1.0000
  H   H2        1.0  0.927645750132333  0.5963041518527816  0.7713412208598025  1.0000
  H   H3        1.0  0.4276457501479357  0.9036958484456413  0.2713412203597088  1.0000
  H   H4        1.0  0.07235424967960287  0.4036958480218714  0.22865877936872714  1.0000
  H   H5        1.0  0.3836288391457735  0.5265822058253451  0.6468795356637811  1.0000
  H   H6        1.0  0.11637116110015691  0.026582206374461917  0.8531204638888625  1.0000
  H   H7        1.0  0.6163711605093037  0.47341779404930795  0.35312046379309076  1.0000
  H   H8        1.0  0.8836288385549202  0.9734177935001912  0.14687953556800934  1.0000
  H   H9        1.0  0.1787511833139336  0.9199007443501387  0.5018112261147397  1.0000
  H   H10       1.0  0.3212488170888555  0.4199007439263688  0.9981887742095616  1.0000
  H   H11       1.0  0.8212488164980023  0.08009925552451445  0.49818877411378987  1.0000
  H   H12       1.0  0.6787511827230804  0.5800992559482843  0.0018112260189680235  1.0000
  H   H13       1.0  0.37152613912692967  0.906914382352298  0.6692393743444421  1.0000
  H   H14       1.0  0.12847386111900067  0.40691438290141474  0.8307606252082014  1.0000
  H   H15       1.0  0.6284738605281475  0.09308561752235515  0.3307606251124296  1.0000
  H   H16       1.0  0.8715261385360764  0.5930856169732384  0.16923937424867047  1.0000
  H   H17       1.0  0.5588598846023465  0.2976802054512213  0.6147610934217729  1.0000
  H   H18       1.0  0.9411401163839401  0.7976802049021045  0.8852389065310019  1.0000
  H   H19       1.0  0.4411401165564016  0.7023197944234317  0.38523890680256595  1.0000
  H   H20       1.0  0.05885988477480794  0.20231979497254857  0.11476109369333694  1.0000
  H   H21       1.0  0.3750353074691274  0.2974922301223399  0.4579459595348117  1.0000
  H   H22       1.0  0.1249646923584112  0.7974922305461097  0.04205404019362421  1.0000
  H   H23       1.0  0.6249646921859499  0.7025077697523132  0.5420540399220601  1.0000
  H   H24       1.0  0.8750353074535246  0.20250776932854328  0.9579459600349054  1.0000
  H   H25       1.0  0.03485379280536603  0.19463701093636515  0.3737185866831668  1.0000
  H   H26       1.0  0.4651462070221726  0.694637011360135  0.12628141304526916  1.0000
  H   H27       1.0  0.9651462083533822  0.805362988938288  0.6262814135411721  1.0000
  H   H28       1.0  0.5348537926329046  0.30536298851451804  0.8737185864116026  1.0000
  H   H29       1.0  0.10240442086070105  0.03657306873928078  0.33735912224045167  1.0000
  H   H30       1.0  0.39759557912369625  0.5365730681901639  0.16264087825964207  1.0000
  H   H31       1.0  0.8975955789512349  0.9634269311353723  0.6626408779880779  1.0000
  H   H32       1.0  0.6024044206882396  0.4634269316844891  0.8373591219688876  1.0000
  H   H33       1.0  0.23327154641014725  0.17546351960736548  0.3115478004941005  1.0000
  H   H34       1.0  0.2667284534173914  0.6754635200311354  0.18845219923433545  1.0000
  H   H35       1.0  0.76672845324493  0.8245364802672877  0.6884521989627714  1.0000
  H   H36       1.0  0.7332715463945445  0.32453647984351774  0.8115478009941942  1.0000
  C   C1        1.0  0.14029174828981453  0.4803949093183512  0.5834879125700153  1.0000
  C   C2        1.0  0.3597082521129746  0.9803949087692344  0.916512087754286  1.0000
  C   C3        1.0  0.8597082515221213  0.5196050915291885  0.41651208765851433  1.0000
  C   C4        1.0  0.6402917490457737  0.019605091105418634  0.08348791247005263  1.0000
  C   C5        1.0  0.2615244705742687  0.11475678820253035  0.4696937921145412  1.0000
  C   C6        1.0  0.2384755294101286  0.6147567876534136  0.030306208385552504  1.0000
  C   C7        1.0  0.7384755292376671  0.8852432116721228  0.5303062081139884  1.0000
  C   C8        1.0  0.7615244704018073  0.38524321222123953  0.9696937918429772  1.0000
  C   C9        1.0  0.13587661573172818  0.6005143520810031  0.5166603686547715  1.0000
  C   C10       1.0  0.36412338467106087  0.10051435263011994  0.9833396316695301  1.0000
  C   C11       1.0  0.8641233854270198  0.3994856477936499  0.48333963156956733  1.0000
  C   C12       1.0  0.6358766151408749  0.8994856482174199  0.016660368558999654  1.0000
  C   C13       1.0  0.4778349008094638  0.21081323197856755  0.5959693968089822  1.0000
  C   C14       1.0  0.0221650994364666  0.7108132324023375  0.9040306027436615  1.0000
  C   C15       1.0  0.5221651001924257  0.7891867678960856  0.4040306026436988  1.0000
  C   C16       1.0  0.9778349003754692  0.28918676747231564  0.09596939748486821  1.0000
  C   C17       1.0  0.480835850598362  0.10090175708288171  0.657357677283867  1.0000
  C   C18       1.0  0.019164148457614754  0.6009017565337649  0.8426423230446254  1.0000
  C   C19       1.0  0.5191641492135738  0.8990982427917714  0.3426423229446627  1.0000
  C   C20       1.0  0.980835851354321  0.39909824334088817  0.1573576771839043  1.0000
  C   C21       1.0  0.0036780389007341056  0.3906903269664486  0.5700944821493227  1.0000
  C   C22       1.0  0.496321961502055  0.8906903264173318  0.9299055181749788  1.0000
  C   C23       1.0  0.9963219609112017  0.6093096729082045  0.429905518079207  1.0000
  C   C24       1.0  0.5036780396566932  0.10930967345732125  0.07009448204936002  1.0000
  C   C25       1.0  0.260683690006943  0.0029362595895937346  0.5299718100924331  1.0000
  C   C26       1.0  0.23931631023898736  0.5029362600133637  0.9700281894602105  1.0000
  C   C27       1.0  0.7393163096481341  0.9970637402850593  0.47002818936443874  1.0000
  C   C28       1.0  0.7606836895729484  0.49706373986128943  0.029971810768319104  1.0000
  C   C29       1.0  0.37083325659328686  0.9955573400465461  0.6234244049148632  1.0000
  C   C30       1.0  0.12916674246268992  0.495557340595663  0.8765755954136291  1.0000
  C   C31       1.0  0.629166743218649  0.004442659828106942  0.3765755953136664  1.0000
  C   C32       1.0  0.8708332573492459  0.5044426592789901  0.12342440481490062  1.0000
  C   C33       1.0  0.15214302876540867  0.13074660707362873  0.36760511596043066  1.0000
  C   C34       1.0  0.3478569710621299  0.6307466065245119  0.1323948837680053  1.0000
  C   C35       1.0  0.8478569710465271  0.8692533928010243  0.632394884268099  1.0000
  C   C36       1.0  0.6521430285929473  0.3692533933501412  0.8676051156888666  1.0000
  N   N1        1.0  0.37087779395406856  0.21402411899584242  0.505464099512659  1.0000
  N   N2        1.0  0.1291222064487205  0.7140241184467255  0.9945359008116424  1.0000
  N   N3        1.0  0.6291222058578673  0.7859758818516974  0.49453590071587056  1.0000
  N   N4        1.0  0.8708777947100277  0.28597588142792746  0.005464099412696418  1.0000
  O   O1        1.0  0.2750842779813685  0.4691619381945079  0.6580109451505045  1.0000
  O   O2        1.0  0.22491572226456188  0.9691619376453913  0.8419890544021391  1.0000
  O   O3        1.0  0.7249157216737087  0.5308380616801451  0.3419890543063674  1.0000
  O   O4        1.0  0.7750842773905152  0.03083806222926194  0.15801094505473268  1.0000
  O   O5        1.0  0.24476395708742224  0.6890107336936806  0.5429043331867575  1.0000
  O   O6        1.0  0.2552360431585081  0.18901073424279743  0.9570956663658862  1.0000
  O   O7        1.0  0.755236042567655  0.31098926618097245  0.45709566627011444  1.0000
  O   O8        1.0  0.7447639566534277  0.8109892666047424  0.04290433386264348  1.0000
  Cl  Cl1       1.0  0.14511722043218697  0.9418721595374238  0.14234314838957868  1.0000
  Cl  Cl2       1.0  0.35488278074216395  0.4418721600865407  0.35765685133466646  1.0000
  Cl  Cl3       1.0  0.8548827807265612  0.058127840337229224  0.8576568518347601  1.0000
  Cl  Cl4       1.0  0.6451172202597255  0.5581278397881124  0.6423431481180146  1.0000
  Cl  Cl5       1.0  0.9967622317001688  0.26019007620618234  0.6520998166127612  1.0000
  Cl  Cl6       1.0  0.5032377679393057  0.7601900766299522  0.8479001833442045  1.0000
  Cl  Cl7       1.0  0.003237767954908436  0.7398099236684708  0.34790018284411073  1.0000
  Cl  Cl8       1.0  0.4967622318726302  0.23980992421758754  0.15209981688432522  1.0000
