data_image0
_chemical_formula_structural       H44C36N4O12Cl8
_chemical_formula_sum              "H44 C36 N4 O12 Cl8"
_cell_length_a       4.177322905132739
_cell_length_b       19.87987808169107
_cell_length_c       13.236713574943629
_cell_angle_alpha    90.0
_cell_angle_beta     98.37203586428664
_cell_angle_gamma    90.0

_space_group_name_H-M_alt    "P 1"
_space_group_IT_number       1

loop_
  _space_group_symop_operation_xyz
  'x, y, z'

loop_
  _atom_site_type_symbol
  _atom_site_label
  _atom_site_symmetry_multiplicity
  _atom_site_fract_x
  _atom_site_fract_y
  _atom_site_fract_z
  _atom_site_occupancy
  H   H1        1.0  0.3133408453425289  0.27352432231503154  0.3127752642450657  1.0000
  H   H2        1.0  0.18665915416294424  0.7735243222724992  0.18722473604031345  1.0000
  H   H3        1.0  0.6866591536684175  0.7264756781029251  0.6872247363256927  1.0000
  H   H4        1.0  0.8133408444913405  0.2264756776424362  0.8127752637668342  1.0000
  H   H5        1.0  0.5999398128573901  0.21808526401340997  0.05780573442959201  1.0000
  H   H6        1.0  0.9000601863160483  0.7180852639708777  0.4421942652096129  1.0000
  H   H7        1.0  0.4000601857968947  0.7819147364045467  0.9421942653775556  1.0000
  H   H8        1.0  0.09993981473146858  0.28191473594405775  0.5578057345961442  1.0000
  H   H9        1.0  0.2142853854223466  0.3946293768886461  0.2633513030599696  1.0000
  H   H10       1.0  0.28571461408312654  0.8946293768461139  0.23664869722540952  1.0000
  H   H11       1.0  0.7857146135885997  0.6053706230262894  0.7366486975107887  1.0000
  H   H12       1.0  0.7142853869643904  0.1053706230688217  0.7633513025803477  1.0000
  H   H13       1.0  0.5294876174123815  0.33043846913980696  0.016372857118293834  1.0000
  H   H14       1.0  0.9705123821177182  0.8304384690972746  0.4836271432845217  1.0000
  H   H15       1.0  0.47051238159856473  0.6695615307751285  0.9836271434524645  1.0000
  H   H16       1.0  0.029487616536566286  0.1695615308176608  0.5163728565226259  1.0000
  H   H17       1.0  0.005728498339107268  0.18358156448460222  0.2085440259907049  1.0000
  H   H18       1.0  0.4942715008097043  0.68358156444207  0.29145597353106356  1.0000
  H   H19       1.0  0.9942715003151773  0.8164184354303332  0.7914559738164426  1.0000
  H   H20       1.0  0.5057285002378127  0.3164184354728655  0.7085440262746937  1.0000
  H   H21       1.0  0.0020012440117797474  0.972291964798397  0.7797695296455586  1.0000
  H   H22       1.0  0.49799875412335126  0.4722919648409292  0.7202304703295317  1.0000
  H   H23       1.0  0.997998754642505  0.027708035116538486  0.22023047016158895  1.0000
  H   H24       1.0  0.5020012445309334  0.5277080350740062  0.27976952947761596  1.0000
  H   H25       1.0  0.9591255154904693  0.47619487760936613  0.13723227330238189  1.0000
  H   H26       1.0  0.5408744836829691  0.9761948775668339  0.36276772633682297  1.0000
  H   H27       1.0  0.04087448555704766  0.5238051228085905  0.8627677265033753  1.0000
  H   H28       1.0  0.45912551497131565  0.023805122348101636  0.6372322734703246  1.0000
  H   H29       1.0  0.5438726214691009  0.45578861765480344  0.10379136556704084  1.0000
  H   H30       1.0  0.9561273780609991  0.9557886176122713  0.39620863483577473  1.0000
  H   H31       1.0  0.456127379578416  0.544211382260132  0.8962086342387162  1.0000
  H   H32       1.0  0.0438726209499472  0.04421138230266427  0.6037913657349835  1.0000
  H   H33       1.0  0.8128370414248446  0.4431896012538591  0.013485745130653915  1.0000
  H   H34       1.0  0.6871629577485936  0.943189601714348  0.48651425450855096  1.0000
  H   H35       1.0  0.18716295722944  0.5568103986610764  0.9865142546764937  1.0000
  H   H36       1.0  0.3128370432989232  0.05681039870360863  0.5134857452972061  1.0000
  H   H37       1.0  0.6827487110343108  0.9055669318505509  0.678921983338282  1.0000
  H   H38       1.0  0.8172512895186792  0.4055669318930832  0.8210780167528543  1.0000
  H   H39       1.0  0.31725129001320607  0.09443306806438458  0.32107801646747525  1.0000
  H   H40       1.0  0.18274870949226713  0.5944330680218524  0.17892198381790392  1.0000
  H   H41       1.0  0.04773399862050703  0.9032781371299281  0.6648274240506352  1.0000
  H   H42       1.0  0.45226599951462393  0.40327813717246036  0.835172575924455  1.0000
  H   H43       1.0  0.9522660000337776  0.09672186328802859  0.33517257575651244  1.0000
  H   H44       1.0  0.5477339991396607  0.5967218632454963  0.1648274238826925  1.0000
  C   C1        1.0  0.3326908825448482  0.06274846630718812  0.9769110586073745  1.0000
  C   C2        1.0  0.167309117983515  0.5627484662646558  0.5230889413663253  1.0000
  C   C3        1.0  0.6673091185026687  0.9372515341107686  0.023088941198382725  1.0000
  C   C4        1.0  0.8326908830640019  0.4372515336502796  0.4769110584394317  1.0000
  C   C5        1.0  0.5577356247209158  0.055766644314636286  0.07038781861860055  1.0000
  C   C6        1.0  0.9422643744525226  0.555766644272104  0.42961218102060433  1.0000
  C   C7        1.0  0.44226437393336887  0.9442333556002991  0.929612181188547  1.0000
  C   C8        1.0  0.05773562420176215  0.44423335564283145  0.5703878187865432  1.0000
  C   C9        1.0  0.2630621919991909  0.01024428666831523  0.9100201807500351  1.0000
  C   C10       1.0  0.23693780613594012  0.5102442866257829  0.5899798192250552  1.0000
  C   C11       1.0  0.7369378066550938  0.9897557132466203  0.08997981905711254  1.0000
  C   C12       1.0  0.7630621928750061  0.48975571328915246  0.41002018134570306  1.0000
  C   C13       1.0  0.13710771666020485  0.28723168505036784  0.2469143319079657  1.0000
  C   C14       1.0  0.36289228248860667  0.7872316850078356  0.25308566761380275  1.0000
  C   C15       1.0  0.8628922819940799  0.7127683148645677  0.7530856678991819  1.0000
  C   C16       1.0  0.6371077185589102  0.21276831490709994  0.7469143321919544  1.0000
  C   C17       1.0  0.8606873161272249  0.3707908760662262  0.13360825763898754  1.0000
  C   C18       1.0  0.6393126830462134  0.8707908760236939  0.36639174200021735  1.0000
  C   C19       1.0  0.13931268252705972  0.6292091243517306  0.8663917421681601  1.0000
  C   C20       1.0  0.36068731560807127  0.1292091243942628  0.6336082578069301  1.0000
  C   C21       1.0  0.08264144906896351  0.3544443814516899  0.2193386188131788  1.0000
  C   C22       1.0  0.41735855007984796  0.8544443814091576  0.28066138070858965  1.0000
  C   C23       1.0  0.917358549585321  0.6455556184632455  0.7806613809939686  1.0000
  C   C24       1.0  0.5826414485744367  0.14555561850577783  0.719338619098558  1.0000
  C   C25       1.0  0.790912244513417  0.44042310491147707  0.09509352443907877  1.0000
  C   C26       1.0  0.709087755016683  0.9404231048689448  0.40490647596373686  1.0000
  C   C27       1.0  0.20908775414086764  0.5595768950034585  0.9049064753680689  1.0000
  C   C28       1.0  0.29091224399426335  0.05957689504599071  0.5950935246070214  1.0000
  C   C29       1.0  0.7464745248928368  0.25427101812336717  0.10588595723270773  1.0000
  C   C30       1.0  0.7535254770304953  0.754271018080835  0.3941140431687174  1.0000
  C   C31       1.0  0.25352547615467996  0.7457289822945895  0.8941140425730495  1.0000
  C   C32       1.0  0.24647452437368322  0.2457289818341006  0.6058859574006504  1.0000
  C   C33       1.0  0.9687244762717777  0.23629473182364752  0.18924348307035152  1.0000
  C   C34       1.0  0.5312755252948929  0.7362947317811153  0.310756516567463  1.0000
  C   C35       1.0  0.03127552477573919  0.763705268091288  0.8107565167354056  1.0000
  C   C36       1.0  0.46872447575262394  0.2637052681338202  0.6892434832382941  1.0000
  N   N1        1.0  0.700292741199349  0.3195822420989195  0.08108885063977665  1.0000
  N   N2        1.0  0.799707258330751  0.8195822420563873  0.41891114976303895  1.0000
  N   N3        1.0  0.29970725745493554  0.680417757816016  0.9189111491673708  1.0000
  N   N4        1.0  0.2002927406801954  0.18041775785854822  0.5810888508077193  1.0000
  O   O1        1.0  0.8821010971932353  0.9333588683870653  0.68892141864904  1.0000
  O   O2        1.0  0.617898903359755  0.4333588684295975  0.8110785814420963  1.0000
  O   O3        1.0  0.1178989042109434  0.06664113152787027  0.31107858192032795  1.0000
  O   O4        1.0  0.3821010952945298  0.566641131485338  0.1889214183650512  1.0000
  O   O5        1.0  0.04519333979621546  0.015138997772686482  0.8283629514476845  1.0000
  O   O6        1.0  0.4548066607321478  0.5151389977301543  0.6716370485260154  1.0000
  O   O7        1.0  0.9548066612513014  0.984861002142249  0.17163704835807272  1.0000
  O   O8        1.0  0.5451933379221369  0.48486100218478123  0.32836295128113213  1.0000
  O   O9        1.0  0.6087797858020091  0.10053307931705341  0.13568633013485504  1.0000
  O   O10       1.0  0.8912202133714292  0.6005330792745212  0.3643136695043499  1.0000
  O   O11       1.0  0.3912202128522756  0.8994669205978821  0.8643136696722926  1.0000
  O   O12       1.0  0.10877978767608767  0.39946692064041434  0.6356863303014072  1.0000
  Cl  Cl1       1.0  0.14504897873720587  0.13946087841219607  0.9544338876726274  1.0000
  Cl  Cl2       1.0  0.3549510217911574  0.6394608783696638  0.5455661123010724  1.0000
  Cl  Cl3       1.0  0.8549510199170788  0.8605391220057607  0.04556611213452018  1.0000
  Cl  Cl4       1.0  0.6450489792563595  0.3605391215452717  0.4544338875046847  1.0000
  Cl  Cl5       1.0  0.16461808889259  0.3371879692850606  0.8979324948294445  1.0000
  Cl  Cl6       1.0  0.335381909242541  0.8371879692425284  0.6020675051456457  1.0000
  Cl  Cl7       1.0  0.8353819097616947  0.6628120306298748  0.10206750497770303  1.0000
  Cl  Cl8       1.0  0.6646180894117436  0.16281203067240707  0.3979324946615019  1.0000
