data_image0
_chemical_formula_structural       H34C22N2O2S2I8
_chemical_formula_sum              "H34 C22 N2 O2 S2 I8"
_cell_length_a       9.103147731342883
_cell_length_b       9.732901683307304
_cell_length_c       11.699745432205171
_cell_angle_alpha    102.11581248652648
_cell_angle_beta     111.11014894527473
_cell_angle_gamma    98.71573795625476

_space_group_name_H-M_alt    "P 1"
_space_group_IT_number       1

loop_
  _space_group_symop_operation_xyz
  'x, y, z'

loop_
  _atom_site_type_symbol
  _atom_site_label
  _atom_site_symmetry_multiplicity
  _atom_site_fract_x
  _atom_site_fract_y
  _atom_site_fract_z
  _atom_site_occupancy
  H   H1        1.0  0.43425859554577856  0.14374803178966508  0.6338461698228436  1.0000
  H   H2        1.0  0.5657414047212985  0.8562519689409602  0.36615383036494337  1.0000
  H   H3        1.0  0.8016099899546145  0.15713380414342332  0.9976440436794302  1.0000
  H   H4        1.0  0.19839000965724782  0.8428661952347546  0.0023559555543803544  1.0000
  H   H5        1.0  0.9465899407519248  0.3022898681478167  0.9456486184528469  1.0000
  H   H6        1.0  0.05341005841583593  0.697710132577556  0.05435138173502969  1.0000
  H   H7        1.0  0.9369030153559829  0.4460817005091422  0.8692296457362213  1.0000
  H   H8        1.0  0.06309698441746069  0.5539182999076828  0.1307703534951847  1.0000
  H   H9        1.0  0.8875626179930107  0.26160352549133725  0.7752872604910019  1.0000
  H   H10       1.0  0.11243738178043286  0.7383964749254875  0.22471273874040407  1.0000
  H   H11       1.0  0.7617831153235713  0.38028509140384786  0.03729143523422039  1.0000
  H   H12       1.0  0.23821688478192451  0.6197149082881307  0.9627085649559711  1.0000
  H   H13       1.0  0.5693230157501736  0.4014404305901986  0.9357154122784056  1.0000
  H   H14       1.0  0.43067698451690356  0.5985595701404268  0.06428458790938138  1.0000
  H   H15       1.0  0.7551339973678921  0.5272173707377603  0.9662205241121518  1.0000
  H   H16       1.0  0.24486600273760373  0.47278262895421824  0.03377947607803957  1.0000
  H   H17       1.0  0.6422064392480941  0.31300313283722386  0.6429873743220534  1.0000
  H   H18       1.0  0.3577935605253495  0.6869968675796011  0.35701262490935265  1.0000
  H   H19       1.0  0.7012725331981675  0.49007565895020505  0.754510317235625  1.0000
  H   H20       1.0  0.2987274669073284  0.5099243407417735  0.2454896829545664  1.0000
  H   H21       1.0  0.5049014924137051  0.37293892693060765  0.7114549510655053  1.0000
  H   H22       1.0  0.4950985073597386  0.6270610734862172  0.2885450481659008  1.0000
  H   H23       1.0  0.9054852100157789  0.619818806336819  0.5238168999654254  1.0000
  H   H24       1.0  0.09451479025129844  0.3801811943938065  0.4761831002223616  1.0000
  H   H25       1.0  0.7603350035928582  0.5418168883021902  0.5782973591989062  1.0000
  H   H26       1.0  0.2396649966742189  0.45818311242843507  0.42170264098888066  1.0000
  H   H27       1.0  0.9574487538599312  0.5015956054175432  0.6239177378751902  1.0000
  H   H28       1.0  0.04255124640714582  0.49840439531308217  0.3760822623125968  1.0000
  H   H29       1.0  0.8483217036833716  0.8770605062991333  0.612666615989624  1.0000
  H   H30       1.0  0.15167829532280783  0.12293949338759219  0.387333384200657  1.0000
  H   H31       1.0  0.8594456494939244  0.9346973717809332  0.7725520023130025  1.0000
  H   H32       1.0  0.14055435061157137  0.06530262791104537  0.22744799787718897  1.0000
  H   H33       1.0  0.7070499938714946  0.7750281936508651  0.6597932848005585  1.0000
  H   H34       1.0  0.29295000574036784  0.22497180572731293  0.34020671443325207  1.0000
  C   C1        1.0  0.628079676415775  0.16519118574443648  0.8161992697088921  1.0000
  C   C2        1.0  0.37192032368972094  0.8348088139475419  0.1838007304812993  1.0000
  C   C3        1.0  0.4899941293964396  0.09156853095228651  0.7059267665038141  1.0000
  C   C4        1.0  0.5100058707090563  0.9084314687396918  0.2940732336863773  1.0000
  C   C5        1.0  0.41703296347037705  0.9473741684652713  0.6893436329773253  1.0000
  C   C6        1.0  0.5829670366351188  0.05262583122670712  0.3106563672128662  1.0000
  C   C7        1.0  0.4828423948743891  0.8759220028602199  0.7808374045003628  1.0000
  C   C8        1.0  0.5171576052311065  0.12407799683175844  0.21916259568982854  1.0000
  C   C9        1.0  0.6212239415741122  0.9539942844479663  0.8928057210614503  1.0000
  C   C10       1.0  0.3787760585313838  0.04600571524401201  0.1071942791287412  1.0000
  C   C11       1.0  0.6939902007085348  0.09846236496860303  0.9106649066031545  1.0000
  C   C12       1.0  0.3060097989033277  0.9015376344095749  0.0893350926306561  1.0000
  C   C13       1.0  0.8841141668976356  0.3331376656633925  0.859414588811048  1.0000
  C   C14       1.0  0.11588583320786032  0.666862334028586  0.14058541137914338  1.0000
  C   C15       1.0  0.6980219246955216  0.41452945176339917  0.9536096043482685  1.0000
  C   C16       1.0  0.30197807491634077  0.5854705476147788  0.04639039488554203  1.0000
  C   C17       1.0  0.6319180893385967  0.3774824207776846  0.7272770716352007  1.0000
  C   C18       1.0  0.3680819107668993  0.6225175789142938  0.2727229285549907  1.0000
  C   C19       1.0  0.8899613279880491  0.5840704618236222  0.6026621421808863  1.0000
  C   C20       1.0  0.11003867211744665  0.4159295378683561  0.3973378580093051  1.0000
  C   C21       1.0  0.8311352809017017  0.8407727901669196  0.6908008503333385  1.0000
  C   C22       1.0  0.1688647192037942  0.15922720952505867  0.309199149856853  1.0000
  N   N1        1.0  0.708407976077033  0.3201256000323324  0.8380241328319159  1.0000
  N   N2        1.0  0.29159202292914627  0.6798743996543931  0.16197586735836503  1.0000
  O   O1        1.0  0.9439387240180663  0.680925471717278  0.8476375281531281  1.0000
  O   O2        1.0  0.05606127624901079  0.3190745290133474  0.15236247203465886  1.0000
  S   S1        1.0  0.9759341528357774  0.7359591121216371  0.7442589607517164  1.0000
  S   S2        1.0  0.02406584726971843  0.2640408875703414  0.25574103943847515  1.0000
  I   I1        1.0  0.1937669896386858  0.8517636147127755  0.5247605642145541  1.0000
  I   I2        1.0  0.8062330104668102  0.14823638497920297  0.4752394359756375  1.0000
  I   I3        1.0  0.3745586123203157  0.6552590083673588  0.7513010583081559  1.0000
  I   I4        1.0  0.6254413866858637  0.3447409913193668  0.24869894188212519  1.0000
  I   I5        1.0  0.7212376135352715  0.8626170201213336  0.04518373462498927  1.0000
  I   I6        1.0  0.2787623865702245  0.13738297957064502  0.9548162655652023  1.0000
  I   I7        1.0  0.1865625211815845  0.30438249724365973  0.7154021865170289  1.0000
  I   I8        1.0  0.8134374789239113  0.6956175024483187  0.2845978136731625  1.0000
