data_image0
_chemical_formula_structural       H44C40O24
_chemical_formula_sum              "H44 C40 O24"
_cell_length_a       7.1951099019318185
_cell_length_b       7.4461935470553815
_cell_length_c       17.402730885224518
_cell_angle_alpha    90.0
_cell_angle_beta     96.81971224201678
_cell_angle_gamma    90.0

_space_group_name_H-M_alt    "P 1"
_space_group_IT_number       1

loop_
  _space_group_symop_operation_xyz
  'x, y, z'

loop_
  _atom_site_type_symbol
  _atom_site_label
  _atom_site_symmetry_multiplicity
  _atom_site_fract_x
  _atom_site_fract_y
  _atom_site_fract_z
  _atom_site_occupancy
  H   H1        1.0  0.8699666137749228  0.1890431696550058  0.8782681914523783  1.0000
  H   H2        1.0  0.1300333860994385  0.6890431705242163  0.1217318084258419  1.0000
  H   H3        1.0  0.41646566464661344  0.7219444506818993  0.03470457276204915  1.0000
  H   H4        1.0  0.5835343352278934  0.2219444511556568  0.9652954276908006  1.0000
  H   H5        1.0  0.44721064259068005  0.6308251337164797  0.9046577461538569  1.0000
  H   H6        1.0  0.5527893572838268  0.1308251341902374  0.09534225429899301  1.0000
  H   H7        1.0  0.07062049429587998  0.9237115442318818  0.9733766271450657  1.0000
  H   H8        1.0  0.9293795055784814  0.42371154470563943  0.026623372733154505  1.0000
  H   H9        1.0  0.742537545730227  0.6744514520423663  0.011930811452392094  1.0000
  H   H10       1.0  0.2574624541441344  0.17445145117315583  0.988069188425828  1.0000
  H   H11       1.0  0.5298391788980762  0.8716509044499225  0.8179681612784588  1.0000
  H   H12       1.0  0.4701608209762851  0.37165090492368014  0.18203183859976135  1.0000
  H   H13       1.0  0.35504208997966813  0.9804806622152793  0.8667282295575612  1.0000
  H   H14       1.0  0.6449579098946933  0.48048066268903694  0.13327177032065904  1.0000
  H   H15       1.0  0.7744326052441075  0.005612199002875205  0.020615151875542654  1.0000
  H   H16       1.0  0.22556739463025394  0.5056121985291177  0.9793848480026777  1.0000
  H   H17       1.0  0.8586686088725319  0.8590993934786614  0.8128362074918696  1.0000
  H   H18       1.0  0.14133139100182943  0.35909939260945084  0.18716379238635075  1.0000
  H   H19       1.0  0.06280052037154979  0.7429044658915118  0.8569884830316389  1.0000
  H   H20       1.0  0.9371994795029571  0.2429044663652694  0.1430115174212111  1.0000
  H   H21       1.0  0.02033772557801806  0.26276662802751716  0.36965719684076814  1.0000
  H   H22       1.0  0.9796622742963433  0.7627666288967276  0.6303428030374522  1.0000
  H   H23       1.0  0.6231493367570348  0.048793422801060284  0.4584671505779976  1.0000
  H   H24       1.0  0.37685066311732657  0.5487934223273028  0.5415328493002227  1.0000
  H   H25       1.0  0.8520744618830739  0.7837503716657817  0.1382382314896865  1.0000
  H   H26       1.0  0.14792553799128746  0.28375037213953924  0.8617617683885338  1.0000
  H   H27       1.0  0.764239054274749  0.7744108884035581  0.45791560492387867  1.0000
  H   H28       1.0  0.2357609455996123  0.27441088887731574  0.5420843949543416  1.0000
  H   H29       1.0  0.671429146116638  0.11526084093521839  0.25708181521176804  1.0000
  H   H30       1.0  0.32857085375772344  0.6152608404614608  0.7429181846664522  1.0000
  H   H31       1.0  0.8948785288057711  0.5825359578136867  0.23623920474482826  1.0000
  H   H32       1.0  0.10512147246832657  0.08253595828744432  0.7637607952020524  1.0000
  H   H33       1.0  0.4803004024070545  0.7624197509941217  0.6293404870733146  1.0000
  H   H34       1.0  0.5196995974673069  0.2624197514678793  0.3706595128049057  1.0000
  H   H35       1.0  0.8773372064882531  0.5535596965015799  0.5360253162348612  1.0000
  H   H36       1.0  0.12266279478584452  0.053559696975337544  0.4639746837120195  1.0000
  H   H37       1.0  0.7625298287669047  0.4869654148909314  0.8545699686295254  1.0000
  H   H38       1.0  0.23747017110745666  0.9869654157601419  0.1454300312486949  1.0000
  H   H39       1.0  0.6122094602176884  0.08328129346640897  0.7584639318324027  1.0000
  H   H40       1.0  0.38779053965667293  0.5832812943356194  0.24153606804581765  1.0000
  H   H41       1.0  0.8363742762141956  0.6138419222003073  0.736335811957885  1.0000
  H   H42       1.0  0.1636257236601658  0.11384192267406493  0.26366418792033525  1.0000
  H   H43       1.0  0.7340011597098217  0.2756273748500155  0.5354934274962856  1.0000
  H   H44       1.0  0.26599884016453956  0.7756273743762578  0.4645065723819346  1.0000
  C   C1        1.0  0.5005232884430364  0.7583390646933988  0.9309241823249796  1.0000
  C   C2        1.0  0.49947671143132494  0.25833906516715643  0.06907581755324071  1.0000
  C   C3        1.0  0.9543991912228466  0.9565119554025778  0.9287043691251058  1.0000
  C   C4        1.0  0.04560080865151477  0.4565119558763354  0.07129563075311435  1.0000
  C   C5        1.0  0.7117580126628676  0.7501921880890444  0.9581080408976422  1.0000
  C   C6        1.0  0.2882419872114938  0.25019218856280206  0.04189195898057828  1.0000
  C   C7        1.0  0.49165025635532633  0.9136234771509898  0.8747225241746287  1.0000
  C   C8        1.0  0.508349743519035  0.4136234776247474  0.12527747570359157  1.0000
  C   C9        1.0  0.7683467308476789  0.9464043279920921  0.9627686479186329  1.0000
  C   C10       1.0  0.2316532704264188  0.4464043284658496  0.03723135202824769  1.0000
  C   C11       1.0  0.931170094235077  0.8071121415285581  0.8677672910173104  1.0000
  C   C12       1.0  0.06882990563928428  0.3071121420023158  0.13223270886090982  1.0000
  C   C13       1.0  0.8342059669190172  0.6599222984128877  0.35029343525507955  1.0000
  C   C14       1.0  0.16579403295534412  0.15992229888664528  0.6497065646231408  1.0000
  C   C15       1.0  0.7073912276601614  0.9567161859252455  0.36187141646255305  1.0000
  C   C16       1.0  0.2926087722141999  0.45671618639900313  0.6381285834156672  1.0000
  C   C17       1.0  0.7677065208917596  0.7939903015733453  0.39624092246263215  1.0000
  C   C18       1.0  0.23229347898260172  0.29399030204710286  0.6037590774155881  1.0000
  C   C19       1.0  0.7805112280734738  0.8508323454075911  0.23773465912420683  1.0000
  C   C20       1.0  0.21948877180088758  0.3508323445383806  0.7622653407540134  1.0000
  C   C21       1.0  0.7147655237339176  0.9866422855614981  0.2829858836274066  1.0000
  C   C22       1.0  0.2852344761404437  0.48664228603525567  0.7170141162508136  1.0000
  C   C23       1.0  0.9076689749232268  0.4913205313400364  0.3874943685531383  1.0000
  C   C24       1.0  0.0923310249511345  0.9913205308662788  0.6125056313250821  1.0000
  C   C25       1.0  0.8385138839004918  0.6861282919539993  0.27087445003426486  1.0000
  C   C26       1.0  0.16148611597386958  0.18612829242775686  0.7291255498439554  1.0000
  C   C27       1.0  0.7923803763784462  0.4577183158699663  0.6317180763140711  1.0000
  C   C28       1.0  0.20761962349591517  0.9577183167391767  0.3682819235641492  1.0000
  C   C29       1.0  0.593026383760042  0.9908300413326776  0.6073508546325797  1.0000
  C   C30       1.0  0.4069736175140557  0.4908300418064351  0.392649145314301  1.0000
  C   C31       1.0  0.6656788778266004  0.18595189760378406  0.7228797954963523  1.0000
  C   C32       1.0  0.33432112204776093  0.6859518971300265  0.27712020438186796  1.0000
  C   C33       1.0  0.7881698922341327  0.48626457090037145  0.7109041563073283  1.0000
  C   C34       1.0  0.21183010764022864  0.9862645717695819  0.28909584357089196  1.0000
  C   C35       1.0  0.6669369217358055  0.16048920733098315  0.6434213217613818  1.0000
  C   C36       1.0  0.3330630781385559  0.6604892082001936  0.3565786781168384  1.0000
  C   C37       1.0  0.7264398935469201  0.34900439178453596  0.7562497111695469  1.0000
  C   C38       1.0  0.2735601063274414  0.8490043913107784  0.24375028870867346  1.0000
  C   C39       1.0  0.7318185202766138  0.29516588658498555  0.5972065663310058  1.0000
  C   C40       1.0  0.2681814795977476  0.795165886111228  0.4027934335472145  1.0000
  O   O1        1.0  0.6270485310479641  0.040961360737207214  0.9110905319924582  1.0000
  O   O2        1.0  0.3729514688263973  0.5409613602634497  0.0889094678857621  1.0000
  O   O3        1.0  0.9896129401707423  0.12980925406944852  0.8992029026003968  1.0000
  O   O4        1.0  0.01038705970361907  0.629809253595691  0.1007970972778236  1.0000
  O   O5        1.0  0.8199728697252539  0.6716123007543421  0.9006684526573578  1.0000
  O   O6        1.0  0.18002713014910757  0.17161230122809965  0.09933154722086243  1.0000
  O   O7        1.0  0.40439990266676906  0.8150773642460707  0.9935654570967953  1.0000
  O   O8        1.0  0.5956000972075923  0.3150773647198282  0.006434542781424866  1.0000
  O   O9        1.0  0.9626537346432756  0.3689573636031041  0.33899230232796257  1.0000
  O   O10       1.0  0.03734626523108574  0.8689573631293465  0.6610076975502577  1.0000
  O   O11       1.0  0.6429458041955683  0.09208794475550046  0.4048873244174173  1.0000
  O   O12       1.0  0.3570541956789386  0.592087945624711  0.5951126760354325  1.0000
  O   O13       1.0  0.9220389702506138  0.46179052401341314  0.45820648926027896  1.0000
  O   O14       1.0  0.07796102962389316  0.9617905235396556  0.5417935111925709  1.0000
  O   O15       1.0  0.7892545073625886  0.8857775087794054  0.16101262095646884  1.0000
  O   O16       1.0  0.21074549251177266  0.385777509253163  0.8389873789217513  1.0000
  O   O17       1.0  0.540308036155546  0.8710672196487508  0.6574877666201786  1.0000
  O   O18       1.0  0.4596919637188154  0.3710672201225083  0.3425122332580417  1.0000
  O   O19       1.0  0.856932422510443  0.5947552332629505  0.5898203881436977  1.0000
  O   O20       1.0  0.1430675773639184  0.09475523373670806  0.41017961173452255  1.0000
  O   O21       1.0  0.5768415456816298  0.9587194376411372  0.5368679961690312  1.0000
  O   O22       1.0  0.4231584555924679  0.4587194381148948  0.46313200377784947  1.0000
  O   O23       1.0  0.7247218829874909  0.3646661388588002  0.834406310022659  1.0000
  O   O24       1.0  0.275278116887016  0.8646661397280107  0.16559369043019093  1.0000
