data_image0
_chemical_formula_structural       H112C108N8O36S12
_chemical_formula_sum              "H112 C108 N8 O36 S12"
_cell_length_a       13.150598626445735
_cell_length_b       23.579264645467486
_cell_length_c       8.980178791432772
_cell_angle_alpha    89.99990031147644
_cell_angle_beta     97.3346506716503
_cell_angle_gamma    90.00044967239266

_space_group_name_H-M_alt    "P 1"
_space_group_IT_number       1

loop_
  _space_group_symop_operation_xyz
  'x, y, z'

loop_
  _atom_site_type_symbol
  _atom_site_label
  _atom_site_symmetry_multiplicity
  _atom_site_fract_x
  _atom_site_fract_y
  _atom_site_fract_z
  _atom_site_occupancy
  H   H1        1.0  0.09356733503100549  0.8496375613140209  0.8580936604938171  1.0000
  H   H2        1.0  0.9064315028777311  0.8496381729541589  0.6419067328395364  1.0000
  H   H3        1.0  0.5935673347789555  0.3496375612066241  0.8580936604115886  1.0000
  H   H4        1.0  0.40643150289452445  0.349638173285816  0.641906733408928  1.0000
  H   H5        1.0  0.9064319306775104  0.15036262643627146  0.14190656980748617  1.0000
  H   H6        1.0  0.09356763434027629  0.1503616470997456  0.35809395408226014  1.0000
  H   H7        1.0  0.40643193092955754  0.6503626261195671  0.14190656988971512  1.0000
  H   H8        1.0  0.593567634323486  0.6503616471921899  0.35809395351286816  1.0000
  H   H9        1.0  0.2021175218752093  0.8113194602417365  0.8103965476146328  1.0000
  H   H10       1.0  0.7978808542904584  0.8113193632829563  0.689603109908871  1.0000
  H   H11       1.0  0.7021175223898308  0.31131946055844245  0.8103965476849729  1.0000
  H   H12       1.0  0.2978808543136126  0.31131936361461365  0.6896031093659265  1.0000
  H   H13       1.0  0.7978815477253384  0.18868070927169112  0.1896038841987085  1.0000
  H   H14       1.0  0.20211809824255914  0.18868038467331413  0.3103975257834525  1.0000
  H   H15       1.0  0.2978815479773856  0.6886807089549866  0.18960388428093744  1.0000
  H   H16       1.0  0.7021180989924376  0.68868038476576  0.3103975253666296  1.0000
  H   H17       1.0  0.3578622752547131  0.9661745118758468  0.038298447655245614  1.0000
  H   H18       1.0  0.642138640375352  0.9661738118103806  0.4616974529219342  1.0000
  H   H19       1.0  0.8578622757693319  0.46617451176845154  0.03829844772558621  1.0000
  H   H20       1.0  0.1421386403921424  0.4661738117179363  0.46169745349132624  1.0000
  H   H21       1.0  0.6421378326628443  0.03382202733180506  0.9617013377750848  1.0000
  H   H22       1.0  0.35786111198260484  0.03382868899209118  0.5382974064333779  1.0000
  H   H23       1.0  0.14213783214822548  0.5338220274392004  0.9617013377047442  1.0000
  H   H24       1.0  0.8578611119594505  0.5338286886604336  0.5382974069763223  1.0000
  H   H25       1.0  0.2679388581655424  0.25789375167568773  0.15216115132022398  1.0000
  H   H26       1.0  0.7320606105205157  0.25789423976238757  0.3478372806333521  1.0000
  H   H27       1.0  0.76793885890906  0.7578937517681335  0.15216115201573718  1.0000
  H   H28       1.0  0.23206061077256268  0.7578942394456831  0.34783728071558107  1.0000
  H   H29       1.0  0.7320619130640882  0.7421072092136538  0.8478425044626372  1.0000
  H   H30       1.0  0.2679387204599047  0.7421057558705682  0.6521616018361437  1.0000
  H   H31       1.0  0.23206191308087865  0.24210720912120942  0.8478425050320293  1.0000
  H   H32       1.0  0.7679387202078547  0.24210575576317114  0.652161601753915  1.0000
  H   H33       1.0  0.39195687596474565  0.2826515838311978  0.1279605266100818  1.0000
  H   H34       1.0  0.6080425408369573  0.2826514182553175  0.37203832932917963  1.0000
  H   H35       1.0  0.8919568767082633  0.7826515839236433  0.127960527305595  1.0000
  H   H36       1.0  0.10804254108900742  0.7826514183627146  0.3720383294114082  1.0000
  H   H37       1.0  0.6080430432757705  0.7173484431850862  0.8720425943653268  1.0000
  H   H38       1.0  0.3919569815526904  0.717349320403514  0.627961308389222  1.0000
  H   H39       1.0  0.10804304329892184  0.21734844309264223  0.8720425938223828  1.0000
  H   H40       1.0  0.8919569813006434  0.21734932072021837  0.627961308306993  1.0000
  H   H41       1.0  0.04489112770484169  0.033691969658583  0.5754276037512382  1.0000
  H   H42       1.0  0.9551068913932953  0.03369229475622683  0.9245749613824787  1.0000
  H   H43       1.0  0.5448911276880514  0.5336919697510273  0.5754276031818463  1.0000
  H   H44       1.0  0.45510689164534557  0.5336922948636238  0.9245749614647072  1.0000
  H   H45       1.0  0.9551083721742589  0.9663079878048706  0.4245734192644346  1.0000
  H   H46       1.0  0.0448912268836658  0.9663081105557113  0.07542485905925497  1.0000
  H   H47       1.0  0.4551083721910492  0.4663079877124262  0.42457341983382657  1.0000
  H   H48       1.0  0.5448912266316158  0.4663081104483144  0.0754248589770264  1.0000
  H   H49       1.0  0.1901633359563963  0.8629857968652705  0.5649451556901791  1.0000
  H   H50       1.0  0.8098357917505534  0.8629855845947124  0.9350555214737484  1.0000
  H   H51       1.0  0.690163336471015  0.36298579675787523  0.5649451557605197  1.0000
  H   H52       1.0  0.3098357917737075  0.36298558492636973  0.9350555209308038  1.0000
  H   H53       1.0  0.8098359868680215  0.1370140134348426  0.43505515279430557  1.0000
  H   H54       1.0  0.19016280144994335  0.13701462096630007  0.06494486787390778  1.0000
  H   H55       1.0  0.3098359863534028  0.6370140135422379  0.43505515272396494  1.0000
  H   H56       1.0  0.6901628014267919  0.637014621058744  0.06494486841685183  1.0000
  H   H57       1.0  0.07173961862558226  0.8272036810228708  0.5871829902037531  1.0000
  H   H58       1.0  0.9282591666887787  0.827204403812179  0.9128165559130638  1.0000
  H   H59       1.0  0.5717396183735322  0.3272036809154739  0.5871829901215245  1.0000
  H   H60       1.0  0.428259166711933  0.3272044041438364  0.9128165553701194  1.0000
  H   H61       1.0  0.928259571227625  0.17279651054408146  0.412817485584976  1.0000
  H   H62       1.0  0.07173947098203208  0.1727958259226638  0.08718397591647847  1.0000
  H   H63       1.0  0.4282595707130062  0.6727965106514768  0.4128174855146354  1.0000
  H   H64       1.0  0.5717394709652417  0.6727958260151081  0.08718397534708645  1.0000
  H   H65       1.0  0.3100122189533658  0.2726926891504665  0.4341949841500569  1.0000
  H   H66       1.0  0.6899858967427137  0.27269267822046117  0.06580378238178695  1.0000
  H   H67       1.0  0.8100122189365754  0.7726926892429108  0.43419498358066483  1.0000
  H   H68       1.0  0.18998589699476076  0.7726926779037567  0.06580378246401589  1.0000
  H   H69       1.0  0.6899915612110091  0.7273063174853177  0.5658109207813378  1.0000
  H   H70       1.0  0.31001261287318144  0.7273069581965248  0.9341957874266167  1.0000
  H   H71       1.0  0.18999156122779948  0.2273063173928735  0.5658109213507299  1.0000
  H   H72       1.0  0.8100126126211313  0.2273069580891278  0.9341957873443882  1.0000
  H   H73       1.0  0.3167168404776462  0.33715564574873447  0.33387730930312  1.0000
  H   H74       1.0  0.6832830791472456  0.3371553737075534  0.16612229800112346  1.0000
  H   H75       1.0  0.8167168404608559  0.8371556458411787  0.3338773087337279  1.0000
  H   H76       1.0  0.18328307863262702  0.8371553738149489  0.1661222979307829  1.0000
  H   H77       1.0  0.6832840630828139  0.6628439838850607  0.666130450827092  1.0000
  H   H78       1.0  0.3167161959990116  0.6628445905419719  0.8338760132155374  1.0000
  H   H79       1.0  0.18328406310596512  0.16284398379261683  0.666130450284148  1.0000
  H   H80       1.0  0.8167161957469616  0.1628445904345749  0.8338760131333087  1.0000
  H   H81       1.0  0.43123871636733585  0.30027062487002953  0.4059033095680129  1.0000
  H   H82       1.0  0.5687606016237376  0.30027024499950267  0.09409596417264196  1.0000
  H   H83       1.0  0.9312387163441844  0.8002706249624736  0.4059033101109569  1.0000
  H   H84       1.0  0.06876060187578768  0.8002702451068996  0.09409596425487052  1.0000
  H   H85       1.0  0.5687639333614052  0.6997297817230436  0.5940998859546535  1.0000
  H   H86       1.0  0.43123866249760096  0.6997297184014977  0.905903201209895  1.0000
  H   H87       1.0  0.06876393338455943  0.19972978205470096  0.5940998854117092  1.0000
  H   H88       1.0  0.931238662245554  0.1997297187182021  0.905903201127666  1.0000
  H   H89       1.0  0.8735621390833443  0.6371831085203493  0.7256349449984819  1.0000
  H   H90       1.0  0.12643624774751647  0.6371836699028824  0.7743651437497051  1.0000
  H   H91       1.0  0.3735621391064955  0.13718310842790543  0.7256349444555379  1.0000
  H   H92       1.0  0.6264362482621382  0.1371836702195885  0.7743651438200452  1.0000
  H   H93       1.0  0.12643703210932722  0.36281664198100694  0.2743657063676484  1.0000
  H   H94       1.0  0.8735628006495552  0.36281636856312516  0.2256353718189323  1.0000
  H   H95       1.0  0.6264370320925369  0.8628166420734513  0.2743657057982564  1.0000
  H   H96       1.0  0.3735628009016053  0.8628163686705224  0.22563537190116087  1.0000
  H   H97       1.0  0.9583163674559168  0.6285705201942353  0.5884300132520661  1.0000
  H   H98       1.0  0.04168192646755497  0.6285704687009275  0.9115702616729964  1.0000
  H   H99       1.0  0.4583163674790682  0.12857052010179137  0.5884300127091221  1.0000
  H   H100      1.0  0.5416819262155077  0.12857046901763192  0.9115702615907675  1.0000
  H   H101      1.0  0.041682870606942736  0.3714294130949466  0.4115707560995795  1.0000
  H   H102      1.0  0.9583171649808967  0.3714295803676686  0.08843037605035162  1.0000
  H   H103      1.0  0.5416828705837885  0.8714294127632892  0.41157075664252385  1.0000
  H   H104      1.0  0.45831716446627496  0.8714295800509625  0.0884303759800114  1.0000
  H   H105      1.0  0.8721791958096533  0.6876701314818476  0.5750294633267428  1.0000
  H   H106      1.0  0.1278201647384655  0.6876705269952581  0.9249704852082417  1.0000
  H   H107      1.0  0.3721791958264437  0.18767013138940328  0.5750294638961349  1.0000
  H   H108      1.0  0.6278201652530843  0.18767052688786284  0.9249704852785823  1.0000
  H   H109      1.0  0.1278198306884994  0.31232957321639704  0.42497072048574214  1.0000
  H   H110      1.0  0.8721789276992107  0.31232966372351384  0.07502930860140446  1.0000
  H   H111      1.0  0.627819831432017  0.8123295733088427  0.4249707211812553  1.0000
  H   H112      1.0  0.3721789271845921  0.8123296638309093  0.07502930853106388  1.0000
  C   C1        1.0  0.4268772267843868  0.06606560243872249  0.1428075993177203  1.0000
  C   C2        1.0  0.573121854403133  0.06606569714982155  0.3571951640351434  1.0000
  C   C3        1.0  0.9268772267612355  0.5660656025311663  0.14280759986066432  1.0000
  C   C4        1.0  0.07312185388851143  0.5660656968331155  0.3571951639648032  1.0000
  C   C5        1.0  0.5731303531992582  0.9339321577733737  0.85719244699545  1.0000
  C   C6        1.0  0.42688694194118987  0.9339356301824545  0.6428039806599031  1.0000
  C   C7        1.0  0.07313035321604858  0.4339321576809294  0.8571924475648421  1.0000
  C   C8        1.0  0.9268869416891427  0.433935630499159  0.6428039805776742  1.0000
  C   C9        1.0  0.24024677503842787  0.9977229033903854  0.8698542239634199  1.0000
  C   C10       1.0  0.7597509927022101  0.9977226468156524  0.6301460865737795  1.0000
  C   C11       1.0  0.7402467755530496  0.4977229037070915  0.8698542240337601  1.0000
  C   C12       1.0  0.25975099271900354  0.49772264714730946  0.630146087143171  1.0000
  C   C13       1.0  0.7597531536100633  0.0022767372693361103  0.13014939889232394  1.0000
  C   C14       1.0  0.24024975178197447  0.0022771770592777815  0.36985298364459984  1.0000
  C   C15       1.0  0.2597531538621134  0.5022767373767331  0.13014939897455252  1.0000
  C   C16       1.0  0.7402497517588232  0.5022771771517217  0.36985298418754387  1.0000
  C   C17       1.0  0.19768761910185276  0.9474855048835406  0.8076006599463302  1.0000
  C   C18       1.0  0.8023110892454591  0.9474855476831056  0.6923985002337786  1.0000
  C   C19       1.0  0.6976876196164745  0.44748550520024666  0.8076006600166705  1.0000
  C   C20       1.0  0.3023110892622494  0.44748554759066117  0.6923985008031706  1.0000
  C   C21       1.0  0.8023126296481993  0.05251448142021529  0.19240107780638058  1.0000
  C   C22       1.0  0.19768846314569014  0.05251426770706361  0.3076008561477884  1.0000
  C   C23       1.0  0.30231262990024926  0.5525144815276122  0.1924010778886091  1.0000
  C   C24       1.0  0.6976884631225359  0.5525142673754061  0.30760085669073284  1.0000
  C   C25       1.0  0.15929917642749533  0.8510067612589965  0.794177200185139  1.0000
  C   C26       1.0  0.8406990299408643  0.8510070524594053  0.7058220379121738  1.0000
  C   C27       1.0  0.659299176942114  0.3510067611516012  0.7941772002554797  1.0000
  C   C28       1.0  0.34069902996401574  0.3510070523669613  0.7058220373692297  1.0000
  C   C29       1.0  0.8407001529179323  0.14899343285290698  0.20582317641229514  1.0000
  C   C30       1.0  0.1592999896015595  0.14899277353164467  0.2941786912943635  1.0000
  C   C31       1.0  0.3407001524096746  0.6489934329603028  0.2058231752296185  1.0000
  C   C32       1.0  0.6592999895784054  0.6489927731999872  0.29417869183730794  1.0000
  C   C33       1.0  0.45876619952403824  0.12037239567866984  0.19034214863101112  1.0000
  C   C34       1.0  0.5412334326782804  0.12037229022880719  0.30965984536196367  1.0000
  C   C35       1.0  0.958766199500887  0.6203723957711138  0.19034214917395514  1.0000
  C   C36       1.0  0.041233432163661564  0.6203722903362024  0.3096598452916231  1.0000
  C   C37       1.0  0.5412345158144864  0.8796264277389451  0.8096625539559834  1.0000
  C   C38       1.0  0.4587679516929785  0.8796283449520246  0.6903436974684644  1.0000
  C   C39       1.0  0.04123451583127681  0.3796264276465007  0.8096625545253754  1.0000
  C   C40       1.0  0.9587679514409285  0.37962834484462765  0.6903436973862358  1.0000
  C   C41       1.0  0.4027684675291402  0.17179764286988483  0.1320805730498765  1.0000
  C   C42       1.0  0.5972313496925108  0.1717976075694373  0.36792093358489775  1.0000
  C   C43       1.0  0.9027684675123498  0.6717976429623292  0.13208057248048452  1.0000
  C   C44       1.0  0.09723134994456092  0.6717976076768343  0.36792093366712636  1.0000
  C   C45       1.0  0.5972310618076628  0.8282013802965041  0.8679252298414137  1.0000
  C   C46       1.0  0.40276684308507055  0.8282040043100376  0.6320823694362696  1.0000
  C   C47       1.0  0.09723106182445611  0.3282013806281612  0.8679252304108054  1.0000
  C   C48       1.0  0.9027668435996894  0.32820400420264234  0.6320823695066101  1.0000
  C   C49       1.0  0.32075981253698804  0.0048317231358197075  0.9885646855932109  1.0000
  C   C50       1.0  0.6792405484078364  0.004831507976725674  0.5114324652734534  1.0000
  C   C51       1.0  0.8207598125138368  0.5048317232282636  0.988564686136155  1.0000
  C   C52       1.0  0.1792405486662474  0.5048315080841231  0.511432464243346  1.0000
  C   C53       1.0  0.6792425935472147  0.9951660875320859  0.011437759880175704  1.0000
  C   C54       1.0  0.3207624002201678  0.9951698443648667  0.488565976741424  1.0000
  C   C55       1.0  0.17924259357036884  0.4951660878637434  0.011437759337231266  1.0000
  C   C56       1.0  0.8207624007347866  0.49516984425747135  0.48856597681176445  1.0000
  C   C57       1.0  0.34675422019267477  0.26265694607159884  0.2084654921485395  1.0000
  C   C58       1.0  0.6532447790891771  0.26265679408472725  0.29153335504442024  1.0000
  C   C59       1.0  0.8467542201695234  0.7626569461640426  0.2084654926914835  1.0000
  C   C60       1.0  0.15324477934122424  0.7626567937680228  0.2915333551266492  1.0000
  C   C61       1.0  0.653245632738435  0.7373438154880204  0.7915382192016976  1.0000
  C   C62       1.0  0.3467541194579614  0.7373435480380346  0.7084658500608065  1.0000
  C   C63       1.0  0.15324563275522532  0.23734381539557609  0.7915382197710896  1.0000
  C   C64       1.0  0.8467541192059141  0.23734354835473898  0.7084658499785775  1.0000
  C   C65       1.0  0.10033459710649924  0.014095144096947697  0.6597675665659736  1.0000
  C   C66       1.0  0.8996622679136121  0.014095682610577389  0.840234825864228  1.0000
  C   C67       1.0  0.6003345970897088  0.5140951441893921  0.6597675659965816  1.0000
  C   C68       1.0  0.3996622681656622  0.5140956827179745  0.8402348259464565  1.0000
  C   C69       1.0  0.8996649420445261  0.985905157312631  0.3402341056988401  1.0000
  C   C70       1.0  0.10033672718379746  0.985904301570729  0.15976454099661125  1.0000
  C   C71       1.0  0.3996649420676773  0.485905157220187  0.3402341051558961  1.0000
  C   C72       1.0  0.6003367269317474  0.485904301463332  0.15976454091438264  1.0000
  C   C73       1.0  0.11824187632912028  0.9572059533920819  0.6865676033846418  1.0000
  C   C74       1.0  0.8817569201723159  0.9572062788252672  0.8134320528964718  1.0000
  C   C75       1.0  0.6182418760770703  0.45720595328468494  0.6865676033024133  1.0000
  C   C76       1.0  0.3817569201954672  0.45720627873282316  0.8134320523535278  1.0000
  C   C77       1.0  0.8817580334781139  0.04279440060726346  0.3134330067676975  1.0000
  C   C78       1.0  0.11824234676153875  0.04279362308082842  0.18656769434609463  1.0000
  C   C79       1.0  0.3817580337301639  0.5427944007146605  0.31343300684992603  1.0000
  C   C80       1.0  0.6182423467383875  0.5427936231732723  0.18656769488903868  1.0000
  C   C81       1.0  0.12449474511527178  0.8611425082351208  0.6295755349834327  1.0000
  C   C82       1.0  0.8755039247691325  0.8611428121317011  0.8704239858499102  1.0000
  C   C83       1.0  0.6244947448632218  0.3611425081277239  0.6295755349012041  1.0000
  C   C84       1.0  0.3755039247922867  0.3611428124633586  0.8704239853069657  1.0000
  C   C85       1.0  0.8755046959599315  0.13885763922585123  0.37042489948389357  1.0000
  C   C86       1.0  0.12449462502333618  0.13885726874332044  0.12957661201208273  1.0000
  C   C87       1.0  0.3755046962119785  0.6388576389091468  0.3704248995661225  1.0000
  C   C88       1.0  0.6244946250065457  0.6388572688357648  0.12957661144269073  1.0000
  C   C89       1.0  0.35161350159011456  0.2952158854826515  0.3537780832929821  1.0000
  C   C90       1.0  0.6483854783911738  0.29521572043843564  0.1462201993558837  1.0000
  C   C91       1.0  0.851613501573324  0.7952158855750959  0.35377808272359007  1.0000
  C   C92       1.0  0.1483854786432239  0.7952157205458327  0.1462201994381123  1.0000
  C   C93       1.0  0.6483873921343807  0.7047840948844214  0.6462256258225416  1.0000
  C   C94       1.0  0.35161349698843286  0.7047843680721693  0.8537780522061268  1.0000
  C   C95       1.0  0.1483873921575319  0.20478409479197757  0.6462256252795976  1.0000
  C   C96       1.0  0.8516134967363858  0.20478436838887368  0.8537780521238979  1.0000
  C   C97       1.0  0.9999995910764619  0.6941578243796567  0.7500002133470306  1.0000
  C   C98       1.0  0.49999959109961317  0.19415782428721287  0.7500002128040865  1.0000
  C   C99       1.0  0.9999994395035688  0.3058421394295599  0.25000014885536004  1.0000
  C   C100      1.0  0.49999943975561895  0.8058421395369567  0.25000014893758865  1.0000
  C   C101      1.0  0.9205805410048201  0.6602265336193545  0.652556039307865  1.0000
  C   C102      1.0  0.079418166722453  0.6602267291095701  0.8474442769203087  1.0000
  C   C103      1.0  0.4205805410216104  0.16022653352691008  0.6525560398772571  1.0000
  C   C104      1.0  0.5794181664704029  0.16022672900217325  0.8474442768380801  1.0000
  C   C105      1.0  0.07941845843581043  0.3397733411433541  0.34744458121967275  1.0000
  C   C106      1.0  0.9205808178340136  0.3397732822138431  0.15255612794697002  1.0000
  C   C107      1.0  0.5794184584126592  0.8397733412357982  0.34744458176261683  1.0000
  C   C108      1.0  0.42058081808606357  0.8397732823212402  0.15255612802919855  1.0000
  N   N1        1.0  0.3483426146916466  0.0557686961277151  0.034458873928994924  1.0000
  N   N2        1.0  0.6516577375290912  0.05576846928351394  0.46554068417178784  1.0000
  N   N3        1.0  0.8483426146748564  0.5557686962201595  0.03445887335960292  1.0000
  N   N4        1.0  0.1516577377811412  0.5557684693909108  0.46554068425401646  1.0000
  N   N5        1.0  0.6516633557283742  0.9442285882377508  0.9655448009100931  1.0000
  N   N6        1.0  0.3483484255729196  0.9442340722441074  0.5344620523708444  1.0000
  N   N7        1.0  0.15166335575152556  0.44422858814530686  0.9655448003671492  1.0000
  N   N8        1.0  0.8483484260875385  0.4442340721367119  0.534462052441185  1.0000
  O   O1        1.0  0.06728810213997696  0.9138796634808454  0.6078033983069847  1.0000
  O   O2        1.0  0.9327109782665409  0.9138801840792943  0.8921953344942187  1.0000
  O   O3        1.0  0.5672881018879269  0.4138796633734483  0.6078033982247562  1.0000
  O   O4        1.0  0.4327109782896923  0.41388018398685034  0.8921953339512746  1.0000
  O   O5        1.0  0.9327119296438602  0.08612068034033121  0.3921972227558273  1.0000
  O   O6        1.0  0.0672879916132418  0.08611989425187398  0.10780575788538894  1.0000
  O   O7        1.0  0.4327119298959074  0.5861206800236267  0.39219722283805625  1.0000
  O   O8        1.0  0.5672879915964515  0.5861198943443183  0.10780575731599693  1.0000
  O   O9        1.0  0.39064393113098045  0.20726530610701033  0.24779508876055775  1.0000
  O   O10       1.0  0.6093552488927861  0.2072652116163929  0.252205352022735  1.0000
  O   O11       1.0  0.89064393111419  0.7072653061994547  0.2477950881911658  1.0000
  O   O12       1.0  0.10935524914483621  0.7072652117237899  0.25220535210496353  1.0000
  O   O13       1.0  0.609354473833588  0.7927345822246248  0.7522084201897472  1.0000
  O   O14       1.0  0.3906433946875313  0.7927351254157847  0.7477961598386457  1.0000
  O   O15       1.0  0.1093544738503784  0.2927345821321805  0.7522084207591393  1.0000
  O   O16       1.0  0.8906433944354812  0.2927351253083877  0.7477961597564171  1.0000
  O   O17       1.0  0.2287515273886776  0.8952904688794224  0.8568379895909002  1.0000
  O   O18       1.0  0.7712477430582592  0.8952902514612537  0.6431605550595283  1.0000
  O   O19       1.0  0.7287515279032993  0.3952904691961285  0.8568379896612405  1.0000
  O   O20       1.0  0.2712477430750497  0.39529025136880924  0.6431605556289204  1.0000
  O   O21       1.0  0.7712478898328432  0.10470954795829789  0.1431623209743692  1.0000
  O   O22       1.0  0.2287515432118428  0.10470981542039903  0.3568390323311528  1.0000
  O   O23       1.0  0.2712478900848933  0.6047095480656949  0.14316232105659776  1.0000
  O   O24       1.0  0.7287515431950524  0.6047098155128433  0.35683903176176074  1.0000
  O   O25       1.0  0.36919528931362255  0.1820195276446656  0.0013294724471722811  1.0000
  O   O26       1.0  0.6308046800819594  0.18202012202689657  0.4986716710494986  1.0000
  O   O27       1.0  0.8691952892968322  0.6820195277371097  0.0013294718777802838  1.0000
  O   O28       1.0  0.13080468033400972  0.6820201221342935  0.49867167113172717  1.0000
  O   O29       1.0  0.6308053410520162  0.817978443753084  0.9986749214682067  1.0000
  O   O30       1.0  0.369190268834348  0.8179829262771985  0.501331003135335  1.0000
  O   O31       1.0  0.13080534107516747  0.3179784436606401  0.9986749209252626  1.0000
  O   O32       1.0  0.8691902685822979  0.31798292616980156  0.5013310030531063  1.0000
  O   O33       1.0  0.9999999225740873  0.7464900132150198  0.7500003420297975  1.0000
  O   O34       1.0  0.4999999225972386  0.24649001312257582  0.7500003414868535  1.0000
  O   O35       1.0  0.9999992074054462  0.2535099603488198  0.24999981834656154  1.0000
  O   O36       1.0  0.49999920689082755  0.7535099604562151  0.24999981827622092  1.0000
  S   S1        1.0  0.4999930164649837  0.013767450974169116  0.2500149361508201  1.0000
  S   S2        1.0  0.9999930164418325  0.513767451066613  0.2500149366937642  1.0000
  S   S3        1.0  0.5000066095427221  0.9862317532889827  0.7499758412161359  1.0000
  S   S4        1.0  6.60955951244376e-06  0.4862317531965385  0.749975841785528  1.0000
  S   S5        1.0  0.18004928766616096  0.05615122075922417  0.7789250557157928  1.0000
  S   S6        1.0  0.8199431738671693  0.05615133672322827  0.7210840898490778  1.0000
  S   S7        1.0  0.6800492876493707  0.5561512208516686  0.7789250551464008  1.0000
  S   S8        1.0  0.3199431733525508  0.5561513368306236  0.7210840897787373  1.0000
  S   S9        1.0  0.8199484048746202  0.9438487341534445  0.2210822369068144  1.0000
  S   S10       1.0  0.1800579544460124  0.9438487696050448  0.2789122861101382  1.0000
  S   S11       1.0  0.3199484048977713  0.4438487340610008  0.22108223636387037  1.0000
  S   S12       1.0  0.6800579541939624  0.44384876949764784  0.2789122860279096  1.0000
