data_image0
_chemical_formula_structural       H52C92N4F16I8
_chemical_formula_sum              "H52 C92 N4 F16 I8"
_cell_length_a       7.993039824819182
_cell_length_b       39.79014749002871
_cell_length_c       6.314850297234596
_cell_angle_alpha    90.0
_cell_angle_beta     94.95587449976858
_cell_angle_gamma    90.0

_space_group_name_H-M_alt    "P 1"
_space_group_IT_number       1

loop_
  _space_group_symop_operation_xyz
  'x, y, z'

loop_
  _atom_site_type_symbol
  _atom_site_label
  _atom_site_symmetry_multiplicity
  _atom_site_fract_x
  _atom_site_fract_y
  _atom_site_fract_z
  _atom_site_occupancy
  H   H1        1.0  0.8084598851450785  0.44805219569662713  0.4082657725307251  1.0000
  H   H2        1.0  0.1915401151259709  0.948052195570607  0.09173422797212423  1.0000
  H   H3        1.0  0.19154011519878947  0.5519478043026513  0.5917342272063127  1.0000
  H   H4        1.0  0.808459885217897  0.051947804428671356  0.9082657717649136  1.0000
  H   H5        1.0  0.8844246296691857  0.4879569294098636  0.1281349142677035  1.0000
  H   H6        1.0  0.11557537060186379  0.9879569292838437  0.3718650862351458  1.0000
  H   H7        1.0  0.1155753707682962  0.512043070589415  0.8718650870587333  1.0000
  H   H8        1.0  0.8844246297420042  0.012043070715434895  0.628134913501892  1.0000
  H   H9        1.0  0.6936168877423494  0.5678855899104811  0.5047366917880151  1.0000
  H   H10       1.0  0.30638311276795105  0.06788559003650105  0.9952633087726104  1.0000
  H   H11       1.0  0.3063831126015186  0.4321144100887975  0.4952633079490228  1.0000
  H   H12       1.0  0.6936168875759169  0.9321144099627774  0.004736690964427583  1.0000
  H   H13       1.0  0.6248822027409506  0.5248107744569945  0.7649900943006733  1.0000
  H   H14       1.0  0.3751177965170606  0.024810774331695942  0.7350099062410677  1.0000
  H   H15       1.0  0.37511779635062825  0.4751892255422841  0.2350099054174802  1.0000
  H   H16       1.0  0.6248822025745183  0.9751892256675827  0.2649900934770858  1.0000
  H   H17       1.0  0.9099397993796936  0.5427039192405975  0.003286713286602043  1.0000
  H   H18       1.0  0.09006020089135577  0.042703919115298916  0.4967132872162473  1.0000
  H   H19       1.0  0.09006019971188528  0.45729608075868106  0.9967132864315515  1.0000
  H   H20       1.0  0.9099397995461261  0.9572960808839797  0.5032867141101895  1.0000
  H   H21       1.0  0.7494034161339436  0.5994468581946638  0.24502906510999176  1.0000
  H   H22       1.0  0.2505965828848169  0.09944685806936539  0.2549709353739732  1.0000
  H   H23       1.0  0.2505965829576355  0.40055314180461465  0.7549709346081617  1.0000
  H   H24       1.0  0.7494034162067621  0.9005531419299132  0.7450290643441803  1.0000
  H   H25       1.0  0.9794706272007841  0.5717130688118389  0.7800020620981868  1.0000
  H   H26       1.0  0.020529373309516208  0.07171306893785885  0.7199979384624384  1.0000
  H   H27       1.0  0.020529373143083795  0.4282869311874397  0.21999793763885106  1.0000
  H   H28       1.0  0.9794706270343518  0.9282869310614198  0.2800020612745993  1.0000
  H   H29       1.0  0.05822902358278847  0.6079963334155147  0.48952697897109126  1.0000
  H   H30       1.0  0.9417709766882609  0.10799633329021621  0.010473021531758097  1.0000
  H   H31       1.0  0.9417709767610795  0.3920036665837638  0.5104730207659466  1.0000
  H   H32       1.0  0.05822902365560701  0.8920036667090623  0.9895269782052798  1.0000
  H   H33       1.0  0.9887891462053973  0.6687073129514757  0.4874264427768983  1.0000
  H   H34       1.0  0.011210853972038262  0.16870731307749562  0.012573556136552137  1.0000
  H   H35       1.0  0.01121085413847068  0.33129268704780285  0.5125735569601396  1.0000
  H   H36       1.0  0.9887891463718297  0.8312926869217829  0.9874264436004857  1.0000
  H   H37       1.0  0.8689839763278473  0.7173878042837938  0.6549499813133661  1.0000
  H   H38       1.0  0.13101602283655023  0.2173878044098137  0.845050017638976  1.0000
  H   H39       1.0  0.13101602276373167  0.2826121957154848  0.34505001840478744  1.0000
  H   H40       1.0  0.8689839775073178  0.7826121955894648  0.15494998209806193  1.0000
  H   H41       1.0  0.717819283352153  0.7423581688759076  0.9443029675718979  1.0000
  H   H42       1.0  0.2821807171581474  0.24235816875060903  0.5556970329887274  1.0000
  H   H43       1.0  0.282180716991715  0.25764183112337097  0.05569703216513993  1.0000
  H   H44       1.0  0.7178192832793344  0.7576418312486695  0.44430296833770944  1.0000
  H   H45       1.0  0.6345975414632568  0.7059691715653837  0.24066026720348987  1.0000
  H   H46       1.0  0.3654024588077927  0.20596917144008525  0.25933973329935944  1.0000
  H   H47       1.0  0.3654024588806113  0.2940308284338948  0.759339732533548  1.0000
  H   H48       1.0  0.6345975415360752  0.7940308285591933  0.7406602664376785  1.0000
  H   H49       1.0  0.7002299669494255  0.6462586226010857  0.24887991925431927  1.0000
  H   H50       1.0  0.29977003332162405  0.14625862272710569  0.25112008124853  1.0000
  H   H51       1.0  0.29977003339444264  0.35374137739819284  0.7511200804827186  1.0000
  H   H52       1.0  0.7002299670222439  0.8537413772721728  0.7488799184885079  1.0000
  C   C1        1.0  0.7872857041115302  0.4749783067463157  0.42426178460765884  1.0000
  C   C2        1.0  0.2127142960659053  0.9749783068716141  0.07573821430579157  1.0000
  C   C3        1.0  0.21271429623233773  0.5250216932529628  0.5757382151293791  1.0000
  C   C4        1.0  0.7872857042779626  0.025021693127664297  0.9242617854312464  1.0000
  C   C5        1.0  0.829807358384364  0.49729007777512324  0.2691748747540208  1.0000
  C   C6        1.0  0.1701926405407825  0.9972900779004218  0.23082512414054518  1.0000
  C   C7        1.0  0.17019264070721493  0.5027099222241552  0.7308251249641328  1.0000
  C   C8        1.0  0.8298073585507965  0.0027099220988567943  0.7691748755776083  1.0000
  C   C9        1.0  0.7993913777516478  0.5318972759601784  0.2922021019003842  1.0000
  C   C10       1.0  0.20060862242578775  0.0318972760861984  0.20779789701306614  1.0000
  C   C11       1.0  0.20060862259222015  0.46810272403910014  0.7077978978366537  1.0000
  C   C12       1.0  0.7993913779180802  0.96810272391308  0.7922021027239717  1.0000
  C   C13       1.0  0.7234015654929782  0.541726377249587  0.47573048604789925  1.0000
  C   C14       1.0  0.27659843468445733  0.04172637712428852  0.024269512865551134  1.0000
  C   C15       1.0  0.27659843485088975  0.45827362274969147  0.5242695136891387  1.0000
  C   C16       1.0  0.7234015656594106  0.95827362287499  0.9757304868714867  1.0000
  C   C17       1.0  0.6850687846635181  0.5175992598459489  0.6230664339157828  1.0000
  C   C18       1.0  0.31493121575316846  0.01759925972065038  0.8769335650554437  1.0000
  C   C19       1.0  0.3149312156803499  0.4824007401533296  0.37693356582125515  1.0000
  C   C20       1.0  0.6850687845906996  0.9824007402786281  0.12306643468159417  1.0000
  C   C21       1.0  0.8458289490220378  0.5547551233764998  0.12872251160043593  1.0000
  C   C22       1.0  0.1541710512490118  0.05475512350251979  0.3712774889024134  1.0000
  C   C23       1.0  0.15417105132183034  0.44524487662277873  0.871277488136602  1.0000
  C   C24       1.0  0.8458289491884701  0.9452448764967588  0.6287225124240234  1.0000
  C   C25       1.0  0.8153062618321752  0.5882424749962422  0.11838300007130466  1.0000
  C   C26       1.0  0.18469373843887424  0.08824247487094365  0.38161700043154473  1.0000
  C   C27       1.0  0.1846937385116928  0.41175752500303636  0.8816169996657333  1.0000
  C   C28       1.0  0.8153062619049938  0.911757525128335  0.6183829993054932  1.0000
  C   C29       1.0  0.8623984532471531  0.6105966318945774  0.9510720481504492  1.0000
  C   C30       1.0  0.13760154591724433  0.11059663176927884  0.5489279508018927  1.0000
  C   C31       1.0  0.13760154584442577  0.38940336810470116  0.04892795156770423  1.0000
  C   C32       1.0  0.8623984531743347  0.8894033682299998  0.45107204891626074  1.0000
  C   C33       1.0  0.9471654585687811  0.5982563423763481  0.7833914218896032  1.0000
  C   C34       1.0  0.0528345419415194  0.09825634225104952  0.716608578671022  1.0000
  C   C35       1.0  0.05283454177508699  0.40174365762293046  0.21660857784743467  1.0000
  C   C36       1.0  0.9471654584023486  0.901743657748229  0.2833914210660157  1.0000
  C   C37       1.0  0.9921705063914575  0.6188175418593362  0.6171187055356421  1.0000
  C   C38       1.0  0.00782949411884289  0.11881754173403766  0.8828812950249834  1.0000
  C   C39       1.0  0.007829493952410468  0.38118245813994234  0.3828812942013957  1.0000
  C   C40       1.0  0.992170506318639  0.8811824582652409  0.1171187063014536  1.0000
  C   C41       1.0  0.9537124091595296  0.6526421742092735  0.6160131725929422  1.0000
  C   C42       1.0  0.046287591350770825  0.15264217408397493  0.8839868279676831  1.0000
  C   C43       1.0  0.046287591184338416  0.34735782579000507  0.38398682714409565  1.0000
  C   C44       1.0  0.9537124089930972  0.8473578259153037  0.11601317176935466  1.0000
  C   C45       1.0  0.869073492180296  0.666917436449564  0.7824897429909246  1.0000
  C   C46       1.0  0.13092650707771544  0.16691743657558403  0.7175102575508163  1.0000
  C   C47       1.0  0.13092650691128302  0.3330825635497145  0.21751025672722887  1.0000
  C   C48       1.0  0.8690734920138635  0.8330825634236946  0.28248974216733713  1.0000
  C   C49       1.0  0.830731943457378  0.7017410326764248  0.7841628746147039  1.0000
  C   C50       1.0  0.16926805695930858  0.20174103255112633  0.7158371243565224  1.0000
  C   C51       1.0  0.16926805688649005  0.2982589673228537  0.2158371251223339  1.0000
  C   C52       1.0  0.8307319433845595  0.7982589674481522  0.2841628753805154  1.0000
  C   C53       1.0  0.748292272970764  0.715665032835983  0.9457444369511112  1.0000
  C   C54       1.0  0.2517077262872474  0.21566503296200296  0.5542555635906297  1.0000
  C   C55       1.0  0.251707726120815  0.28433496716329554  0.0542555627670422  1.0000
  C   C56       1.0  0.7482922740566206  0.7843349670372756  0.44574443614640813  1.0000
  C   C57       1.0  0.701434276484114  0.695160452142874  0.11336918146428225  1.0000
  C   C58       1.0  0.2985657237869354  0.1951604520175755  0.3866308190385671  1.0000
  C   C59       1.0  0.298565723859754  0.30483954785640455  0.8866308182727556  1.0000
  C   C60       1.0  0.7014342765569325  0.804839547981703  0.6133691806984708  1.0000
  C   C61       1.0  0.7378597407490841  0.6612331911208258  0.11706125771957256  1.0000
  C   C62       1.0  0.26214025952196546  0.16123319124684582  0.3829387427832768  1.0000
  C   C63       1.0  0.262140259594784  0.33876680887845273  0.8829387420174654  1.0000
  C   C64       1.0  0.7378597395696135  0.8387668087524327  0.6170612569348767  1.0000
  C   C65       1.0  0.8220860340147458  0.6459290058284088  0.9533839828475159  1.0000
  C   C66       1.0  0.17791396649555463  0.14592900595442881  0.5466160177131094  1.0000
  C   C67       1.0  0.17791396642273613  0.3540709941708697  0.04661601847892096  1.0000
  C   C68       1.0  0.8220860338483134  0.8540709940448498  0.4533839820239284  1.0000
  C   C69       1.0  0.7215223396677084  0.3249265221557658  0.05719450559091505  1.0000
  C   C70       1.0  0.27847766060334106  0.8249265220297458  0.44280549491193427  1.0000
  C   C71       1.0  0.27847766067615953  0.6750734778435128  0.9428054941461229  1.0000
  C   C72       1.0  0.7215223397405269  0.17507347796953276  0.5571945048251036  1.0000
  C   C73       1.0  0.726078197471427  0.3546708846338538  0.9419534316947514  1.0000
  C   C74       1.0  0.27392180294525953  0.8546708845078338  0.558046567276475  1.0000
  C   C75       1.0  0.27392180287244106  0.6453291153654247  0.05804656804228636  1.0000
  C   C76       1.0  0.7260781973986086  0.1453291154914447  0.44195343246056296  1.0000
  C   C77       1.0  0.6539116098494109  0.38414448862825695  0.010697357651970493  1.0000
  C   C78       1.0  0.3460883904216386  0.8841444887535554  0.48930264285087893  1.0000
  C   C79       1.0  0.346088390588071  0.6158555113710216  0.9893026436744663  1.0000
  C   C80       1.0  0.6539116099222295  0.11585551124572305  0.510697356886159  1.0000
  C   C81       1.0  0.5759920616256275  0.38257607926220377  0.19920968562048766  1.0000
  C   C82       1.0  0.42400793864542197  0.8825760791361837  0.3007903148823617  1.0000
  C   C83       1.0  0.4240079387182405  0.6174239207370747  0.8007903141165502  1.0000
  C   C84       1.0  0.575992061698446  0.11742392086309478  0.6992096848546762  1.0000
  C   C85       1.0  0.570024325664371  0.3529373901797987  0.3155880688887165  1.0000
  C   C86       1.0  0.4299756733543893  0.8529373903050972  0.18441193159524846  1.0000
  C   C87       1.0  0.4299756735208218  0.6470626098194798  0.684411932418836  1.0000
  C   C88       1.0  0.5700243257371895  0.1470626096941813  0.8155880681229051  1.0000
  C   C89       1.0  0.6441305277015481  0.3236257104406805  0.24694947094308883  1.0000
  C   C90       1.0  0.35586947247588746  0.8236257103146605  0.25305052797036154  1.0000
  C   C91       1.0  0.35586947264231983  0.676374289558598  0.7530505287939491  1.0000
  C   C92       1.0  0.6441305266156915  0.17637428968461802  0.746949471747792  1.0000
  N   N1        1.0  0.7171091656920113  0.48463460194090596  0.6001797717247275  1.0000
  N   N2        1.0  0.2828908335660001  0.9846346020662046  0.8998202288170136  1.0000
  N   N3        1.0  0.2828908334931816  0.5153653980583727  0.399820229582825  1.0000
  N   N4        1.0  0.7171091655255789  0.015365397933074081  0.10017977090113996  1.0000
  F   F1        1.0  0.7962468266573959  0.29723379193213106  0.9839535431826745  1.0000
  F   F2        1.0  0.2037531726006155  0.7972337920574296  0.5160464573590665  1.0000
  F   F3        1.0  0.20375317243418312  0.7027662080671475  0.01604645653547903  1.0000
  F   F4        1.0  0.7962468278368664  0.20276620794184894  0.48395354396737034  1.0000
  F   F5        1.0  0.806308603708675  0.35449438993747806  0.7613611704097845  1.0000
  F   F6        1.0  0.19369139670801153  0.8544943898114581  0.738638828561442  1.0000
  F   F7        1.0  0.19369139663519297  0.6455056100618005  0.2386388293272534  1.0000
  F   F8        1.0  0.8063086036358564  0.14550561018782046  0.261361171175596  1.0000
  F   F9        1.0  0.5043336089123548  0.4105421633356256  0.2750508975138966  1.0000
  F   F10       1.0  0.4956663900127918  0.9105421632096056  0.22494910138066937  1.0000
  F   F11       1.0  0.49566639017922415  0.5894578366636529  0.724949102204257  1.0000
  F   F12       1.0  0.5043336090787872  0.08945783678967288  0.7750508983374841  1.0000
  F   F13       1.0  0.49194684441053405  0.35312903159057535  0.49759932810624075  1.0000
  F   F14       1.0  0.5080531558605155  0.8531290317158737  0.002400672396608596  1.0000
  F   F15       1.0  0.508053155933334  0.6468709684087032  0.5024006716307972  1.0000
  F   F16       1.0  0.4919468445769664  0.14687096828340465  0.9975993289298283  1.0000
  I   I1        1.0  0.6699896061321569  0.42995159830174473  0.8411623056866678  1.0000
  I   I2        1.0  0.3300103930322408  0.9299515981757247  0.6588376932656742  1.0000
  I   I3        1.0  0.3300103929594222  0.5700484016975338  0.1588376940314857  1.0000
  I   I4        1.0  0.6699896060593382  0.07004840182355376  0.34116230645247925  1.0000
  I   I5        1.0  0.6539892119863249  0.28003094391123506  0.4296337782664118  1.0000
  I   I6        1.0  0.34601078828472465  0.7800309437852151  0.07036622223643751  1.0000
  I   I7        1.0  0.3460107883575431  0.7199690560880435  0.570366221470626  1.0000
  I   I8        1.0  0.6539892121527573  0.21996905621406343  0.9296337790899992  1.0000
