data_image0
_chemical_formula_structural       H34C34N6O8
_chemical_formula_sum              "H34 C34 N6 O8"
_cell_length_a       7.250596095876585
_cell_length_b       8.841216649864696
_cell_length_c       11.707295000763224
_cell_angle_alpha    87.30367729598765
_cell_angle_beta     81.27118072718206
_cell_angle_gamma    84.46815472479149

_space_group_name_H-M_alt    "P 1"
_space_group_IT_number       1

loop_
  _space_group_symop_operation_xyz
  'x, y, z'

loop_
  _atom_site_type_symbol
  _atom_site_label
  _atom_site_symmetry_multiplicity
  _atom_site_fract_x
  _atom_site_fract_y
  _atom_site_fract_z
  _atom_site_occupancy
  H   H1        1.0  0.30380910935872973  0.6192860662132805  0.6338775674860629  1.0000
  H   H2        1.0  0.6961908906668037  0.3807139336056983  0.36612243254902793  1.0000
  H   H3        1.0  0.10005028589918913  0.11792878069889781  0.4562176960872372  1.0000
  H   H4        1.0  0.8999497141263444  0.8820712191200808  0.5437823039478535  1.0000
  H   H5        1.0  0.06447271477194014  0.9855861839666652  0.6522601019309108  1.0000
  H   H6        1.0  0.9355272852535934  0.014413815852313373  0.34773989810417993  1.0000
  H   H7        1.0  0.12550534412578493  0.11442384017670501  0.8223007272173497  1.0000
  H   H8        1.0  0.8744946558997486  0.8855761596422737  0.1776992728177411  1.0000
  H   H9        1.0  0.2216877549673416  0.3759851220847471  0.8083669804580192  1.0000
  H   H10       1.0  0.778312245058192  0.6240148777342317  0.19163301957707152  1.0000
  H   H11       1.0  0.2980593627574377  0.5675761428159533  0.23102425252114783  1.0000
  H   H12       1.0  0.7019406372680959  0.4324238570030255  0.7689757475139429  1.0000
  H   H13       1.0  0.39687111165994043  0.7935943494907545  0.10887419976543523  1.0000
  H   H14       1.0  0.6031288883655932  0.20640565032822428  0.8911258002696556  1.0000
  H   H15       1.0  0.44953414308045786  0.035634517964561185  0.39315767912504473  1.0000
  H   H16       1.0  0.5504658569450758  0.9643654818544175  0.6068423209100462  1.0000
  H   H17       1.0  0.35447489920612585  0.8214797416465452  0.5306730717627084  1.0000
  H   H18       1.0  0.6455251008194078  0.17852025817243347  0.46932692827238237  1.0000
  H   H19       1.0  0.8171603733435551  0.4167996215534472  0.15345367123445844  1.0000
  H   H20       1.0  0.18283962668197853  0.5832003782655314  0.8465463288006324  1.0000
  H   H21       1.0  0.6702880143774459  0.406061661981963  0.047437501726887925  1.0000
  H   H22       1.0  0.3297119856480878  0.5939383378370157  0.952562498308203  1.0000
  H   H23       1.0  0.9877997926460154  0.3516363934267517  0.9563666349441139  1.0000
  H   H24       1.0  0.012200207379518163  0.648363606392227  0.043633365090976935  1.0000
  H   H25       1.0  0.8774197900849936  0.18111697689422912  0.9645417616804727  1.0000
  H   H26       1.0  0.12258020994053995  0.8188830229247495  0.03545823835461817  1.0000
  H   H27       1.0  0.0321962617272211  0.08763487084960235  0.13484659254228185  1.0000
  H   H28       1.0  0.9678037382983125  0.9123651289693765  0.865153407492809  1.0000
  H   H29       1.0  0.20023427723945034  0.1334218465653186  0.014822767320097303  1.0000
  H   H30       1.0  0.7997657227860833  0.86657815325366  0.9851772327149936  1.0000
  H   H31       1.0  0.17341695003349786  0.3386025204812728  0.31341225779266363  1.0000
  H   H32       1.0  0.8265830499920358  0.6613974793377059  0.6865877422424272  1.0000
  H   H33       1.0  0.5149164582498568  0.04083802314532993  0.1768829366919374  1.0000
  H   H34       1.0  0.48508354177567686  0.9591619766736488  0.8231170633431534  1.0000
  C   C1        1.0  0.18039898418871775  0.32149272211993574  0.523853835820048  1.0000
  C   C2        1.0  0.8196010158368158  0.6785072776990431  0.4761461642150428  1.0000
  C   C3        1.0  0.12486550542266253  0.17341146351298262  0.5326586812003521  1.0000
  C   C4        1.0  0.875134494602871  0.826588536305996  0.4673413188347386  1.0000
  C   C5        1.0  0.10548394978110748  0.1013996789304244  0.6412804460433872  1.0000
  C   C6        1.0  0.8945160502444262  0.8986003208885543  0.35871955399170374  1.0000
  C   C7        1.0  0.13882678141681273  0.175419225757036  0.738978191442912  1.0000
  C   C8        1.0  0.8611732186087208  0.8245807740619426  0.2610218085921787  1.0000
  C   C9        1.0  0.19209490641854085  0.3228405021339639  0.7322182913795302  1.0000
  C   C10       1.0  0.8079050936069928  0.6771594976850148  0.2677817086555606  1.0000
  C   C11       1.0  0.21235605305598776  0.3956112068196303  0.6232389417549268  1.0000
  C   C12       1.0  0.7876439468579655  0.6043887941362385  0.37676105824531353  1.0000
  C   C13       1.0  0.266014082038646  0.5446803306760172  0.4659874910877655  1.0000
  C   C14       1.0  0.7339859179868874  0.45531966914296157  0.5340125089473254  1.0000
  C   C15       1.0  0.3175494603163097  0.6757318380756384  0.3920980959754302  1.0000
  C   C16       1.0  0.6824505397092238  0.3242681617433403  0.6079019040596606  1.0000
  C   C17       1.0  0.3282244652566625  0.6691512992759291  0.271556939027051  1.0000
  C   C18       1.0  0.6717755346572906  0.3308487016799397  0.7284430609731894  1.0000
  C   C19       1.0  0.3820608896562884  0.7944712137067201  0.20304425043011792  1.0000
  C   C20       1.0  0.6179391102576646  0.20552878724914872  0.7969557495701224  1.0000
  C   C21       1.0  0.4125406922468138  0.9295030843591064  0.36273822880614265  1.0000
  C   C22       1.0  0.5874593076671395  0.07049691659676216  0.6372617711940978  1.0000
  C   C23       1.0  0.36039468993408885  0.8098702467046667  0.4379167663358614  1.0000
  C   C24       1.0  0.6396053100914447  0.19012975311431204  0.5620832336992293  1.0000
  C   C25       1.0  0.6536448723714614  0.22843519253238845  0.17568280230592448  1.0000
  C   C26       1.0  0.3463551275424918  0.7715648084234804  0.824317197694316  1.0000
  C   C27       1.0  0.7660931891781999  0.3383313177858372  0.09841682961292145  1.0000
  C   C28       1.0  0.23390681084733375  0.6616686820331416  0.9015831704221695  1.0000
  C   C29       1.0  0.9297892700044937  0.2631944476267725  0.016311408480789925  1.0000
  C   C30       1.0  0.07021073002103975  0.7368055521922061  0.983688591554301  1.0000
  C   C31       1.0  0.08493417956381087  0.18163691565327295  0.07855770949254781  1.0000
  C   C32       1.0  0.9150658204617228  0.8183630841657058  0.921442290542543  1.0000
  C   C33       1.0  0.16403645616741885  0.2908588022094524  0.1501803933545394  1.0000
  C   C34       1.0  0.8359635438581148  0.7091411976095261  0.8498196066805512  1.0000
  N   N1        1.0  0.2660482349533272  0.5364993008983577  0.5835824280124773  1.0000
  N   N2        1.0  0.733951764960626  0.4635007000575112  0.41641757198776297  1.0000
  N   N3        1.0  0.2150127530626809  0.41711080835015535  0.42787390483671345  1.0000
  N   N4        1.0  0.7849872469628527  0.5828891914688233  0.5721260951983773  1.0000
  N   N5        1.0  0.42308486297460424  0.9224383396479894  0.24760801705876018  1.0000
  N   N6        1.0  0.5769151370509293  0.07756166017098945  0.7523919829763306  1.0000
  O   O1        1.0  0.5954280946239933  0.12101127212129752  0.11957608393325475  1.0000
  O   O2        1.0  0.4045719054015405  0.8789887276976811  0.8804239161018361  1.0000
  O   O3        1.0  0.6186178114077523  0.24005461351575622  0.28274832078778006  1.0000
  O   O4        1.0  0.3813821886177813  0.7599453863032225  0.7172516792473108  1.0000
  O   O5        1.0  0.2513212004185987  0.39775234240269414  0.10726614041861554  1.0000
  O   O6        1.0  0.748678799606935  0.6022476574162846  0.8927338596164754  1.0000
  O   O7        1.0  0.12396164240998443  0.2617640281700254  0.2634219059763975  1.0000
  O   O8        1.0  0.8760383576155492  0.738235971648953  0.7365780940586933  1.0000
