data_image0
_chemical_formula_structural       H68C72N12O12
_chemical_formula_sum              "H68 C72 N12 O12"
_cell_length_a       8.917149360719428
_cell_length_b       10.399839366015481
_cell_length_c       17.416788701265986
_cell_angle_alpha    101.65562311435008
_cell_angle_beta     102.2259219509089
_cell_angle_gamma    94.1275376478522

_space_group_name_H-M_alt    "P 1"
_space_group_IT_number       1

loop_
  _space_group_symop_operation_xyz
  'x, y, z'

loop_
  _atom_site_type_symbol
  _atom_site_label
  _atom_site_symmetry_multiplicity
  _atom_site_fract_x
  _atom_site_fract_y
  _atom_site_fract_z
  _atom_site_occupancy
  H   H1        1.0  0.6723018661825537  0.05585320024734386  0.36093606597909894  1.0000
  H   H2        1.0  0.3276981335934122  0.9441467994465396  0.6390639342278832  1.0000
  H   H3        1.0  0.5767711251367357  0.08700637797843117  0.4852479469926776  1.0000
  H   H4        1.0  0.42322887578739016  0.9129936217159342  0.5147520527650066  1.0000
  H   H5        1.0  0.8986219749881779  0.43969314742932175  0.5885590566741424  1.0000
  H   H6        1.0  0.10137802478881529  0.5603068522673477  0.41144094295913086  1.0000
  H   H7        1.0  0.9962480611309636  0.4057963662313562  0.4630633455775994  1.0000
  H   H8        1.0  0.0037519386460297998  0.5942036334653134  0.5369366540556739  1.0000
  H   H9        1.0  0.9226671471448511  0.10482759150117463  0.22530013189740652  1.0000
  H   H10       1.0  0.07733285263111485  0.8951724081927088  0.7746998683095756  1.0000
  H   H11       1.0  0.8132169780527191  0.02295526766287724  0.27918977632521746  1.0000
  H   H12       1.0  0.1867830217242741  0.9770447320337922  0.7208102233080559  1.0000
  H   H13       1.0  0.6409613673282734  0.385338616046703  0.6371946404940474  1.0000
  H   H14       1.0  0.3590386325899651  0.6146613846388919  0.36280535927545693  1.0000
  H   H15       1.0  0.564607973164714  0.21579980434488735  0.6124215352159211  1.0000
  H   H16       1.0  0.43539202661125204  0.784200195348996  0.3875784649910609  1.0000
  H   H17       1.0  0.9397519228785632  0.07284219573216073  0.7966603362858142  1.0000
  H   H18       1.0  0.06024807703864813  0.927157804950648  0.20333966405739895  1.0000
  H   H19       1.0  0.03346424411819225  0.33689012499781423  0.8638487465274206  1.0000
  H   H20       1.0  0.9665357556588009  0.6631098746988553  0.1361512531058527  1.0000
  H   H21       1.0  0.8622830792204639  0.46304908475827955  0.7553652680515923  1.0000
  H   H22       1.0  0.13771692055652926  0.53695091493839  0.244634731581681  1.0000
  H   H23       1.0  0.06564041091774908  0.30992830694747225  0.25640171249249466  1.0000
  H   H24       1.0  0.9343595888582169  0.6900716927464112  0.7435982877144874  1.0000
  H   H25       1.0  0.27547964573830697  0.4498405929173135  0.14803378330452716  1.0000
  H   H26       1.0  0.724520354037659  0.5501594067765699  0.851966216902455  1.0000
  H   H27       1.0  0.39389171571279863  0.49481489998870776  0.03756932423248801  1.0000
  H   H28       1.0  0.6061082840631673  0.5051850997051756  0.9624306759744942  1.0000
  H   H29       1.0  0.3659494341436474  0.3190358281322089  0.9130510397088406  1.0000
  H   H30       1.0  0.6340505656333458  0.6809641715644607  0.08694895992443276  1.0000
  H   H31       1.0  0.21974577126000222  0.09934550814526123  0.8999072005064173  1.0000
  H   H32       1.0  0.7802542285159638  0.900654491548622  0.10009279970056482  1.0000
  H   H33       1.0  0.10111336613009735  0.056345139569989745  0.01009976039869318  1.0000
  H   H34       1.0  0.8988866337881412  0.9436548611156053  0.9899002393708111  1.0000
  H   H35       1.0  0.21282248682086827  0.04602544699174286  0.42156101986701905  1.0000
  H   H36       1.0  0.7871775130963431  0.9539745536910659  0.578438980476194  1.0000
  H   H37       1.0  0.13637455916934926  0.07132275771988629  0.5508043529351387  1.0000
  H   H38       1.0  0.8636254406066166  0.9286772419739971  0.44919564727184347  1.0000
  H   H39       1.0  0.3088526422830576  0.48567995010374115  0.6120424128572357  1.0000
  H   H40       1.0  0.6911473574929085  0.5143200495901423  0.3879575873497464  1.0000
  H   H41       1.0  0.38582758530027167  0.46050225442211723  0.48182069351771717  1.0000
  H   H42       1.0  0.6141724146169396  0.5394977462606915  0.5181793068254958  1.0000
  H   H43       1.0  0.3835334327902283  0.12510943990749632  0.26424504303717006  1.0000
  H   H44       1.0  0.6164665669857377  0.8748905597863872  0.7357549571698121  1.0000
  H   H45       1.0  0.29245317535068827  0.04144785027926001  0.32406208876322634  1.0000
  H   H46       1.0  0.7075468255724103  0.9585521494123191  0.6759379115681667  1.0000
  H   H47       1.0  0.15448109004670307  0.39275869941414643  0.6940291915234406  1.0000
  H   H48       1.0  0.8455189097302902  0.6072413002825231  0.3059708081098327  1.0000
  H   H49       1.0  0.07997731300546516  0.22213360496091852  0.6688851458818343  1.0000
  H   H50       1.0  0.9200226880588788  0.777866395719586  0.3311148545857898  1.0000
  H   H51       1.0  0.4954398325052484  0.05734246870486081  0.8099582121271588  1.0000
  H   H52       1.0  0.5045601684178501  0.9426575309867182  0.19004178820423426  1.0000
  H   H53       1.0  0.6527021077036608  0.30916740464988796  0.8493763276873177  1.0000
  H   H54       1.0  0.3472978922135504  0.6908325960329207  0.1506236726558954  1.0000
  H   H55       1.0  0.4472887639603161  0.4518604985055526  0.7681893977805874  1.0000
  H   H56       1.0  0.5527112369638096  0.5481395011888127  0.2318106019770969  1.0000
  H   H57       1.0  0.511700948141866  0.336780716244177  0.29103371443133963  1.0000
  H   H58       1.0  0.4882990517763725  0.6632192844414179  0.7089662853381647  1.0000
  H   H59       1.0  0.7686009394242347  0.4467551826825293  0.18473390508393156  1.0000
  H   H60       1.0  0.23139906035173136  0.5532448170113542  0.8152660951230506  1.0000
  H   H61       1.0  0.9033352729542059  0.4584010662187719  0.0743299107943484  1.0000
  H   H62       1.0  0.09666472696300529  0.5415989344640367  0.9256700895488648  1.0000
  H   H63       1.0  0.8584052209728997  0.27168891770457315  0.9552138377463091  1.0000
  H   H64       1.0  0.1415947788030662  0.7283110819893102  0.04478616246067309  1.0000
  H   H65       1.0  0.6798150583835135  0.0707000685807843  0.9460937921314502  1.0000
  H   H66       1.0  0.32018494139347975  0.9292999311158853  0.053906207501823226  1.0000
  H   H67       1.0  0.5477850496266017  0.059492044981634566  0.05822651785652478  1.0000
  H   H68       1.0  0.4522149501493642  0.9405079547122487  0.9417734823504574  1.0000
  C   C1        1.0  0.8411816558566667  0.23080141828107986  0.4038300028622326  1.0000
  C   C2        1.0  0.15881834406054446  0.7691985824017289  0.5961699974809805  1.0000
  C   C3        1.0  0.7235516519799523  0.13994971598983127  0.41048911285550643  1.0000
  C   C4        1.0  0.2764483477960136  0.8600502837040521  0.5895108873514757  1.0000
  C   C5        1.0  0.669920630485348  0.15725246040785668  0.4811023373974273  1.0000
  C   C6        1.0  0.33007936929061793  0.8427475392860267  0.5188976628095548  1.0000
  C   C7        1.0  0.7315999459691795  0.2641563114424378  0.5459698245888943  1.0000
  C   C8        1.0  0.2684000539490591  0.7358436892431571  0.45403017518061  1.0000
  C   C9        1.0  0.8495723225833669  0.3546596197251423  0.5390505731591088  1.0000
  C   C10       1.0  0.15042767848097688  0.6453403809553623  0.46094942730851535  1.0000
  C   C11       1.0  0.9033623474747758  0.3376016950765055  0.4688515749284171  1.0000
  C   C12       1.0  0.09663765230118998  0.6623983046173778  0.531148425278565  1.0000
  C   C13       1.0  0.9049159614928378  0.22069554882227324  0.33060285451979454  1.0000
  C   C14       1.0  0.09508403828415536  0.7793044508743963  0.6693971451134788  1.0000
  C   C15       1.0  0.6699190535605838  0.2838818726901405  0.6214726291689714  1.0000
  C   C16       1.0  0.33008094736354215  0.7161181270042248  0.37852737058871294  1.0000
  C   C17       1.0  0.9054473827945968  0.15798881839914808  0.7731049401209695  1.0000
  C   C18       1.0  0.09455261698136916  0.8420111812947355  0.22689506008601262  1.0000
  C   C19       1.0  0.9505361524488314  0.2933875368255305  0.8078086519911383  1.0000
  C   C20       1.0  0.04946384732816177  0.7066124628711391  0.19219134764213494  1.0000
  C   C21       1.0  0.8672447932151235  0.358601206201521  0.7538159908451862  1.0000
  C   C22       1.0  0.13275520670311494  0.6413987944840739  0.2461840089243181  1.0000
  C   C23       1.0  0.18039588266015186  0.2504919032603471  0.08586489433444223  1.0000
  C   C24       1.0  0.819604118263974  0.7495080964340182  0.9141351054232421  1.0000
  C   C25       1.0  0.10642092056061125  0.22333917119585245  0.15084527631834035  1.0000
  C   C26       1.0  0.8935790792153547  0.7766608284980309  0.8491547238886418  1.0000
  C   C27       1.0  0.26342213489170013  0.3739576433734354  0.09331732664803101  1.0000
  C   C28       1.0  0.7365778650265384  0.6260423573121595  0.9066826731214733  1.0000
  C   C29       1.0  0.3298589240826695  0.39859954225811134  0.031380724144614014  1.0000
  C   C30       1.0  0.6701410756932965  0.601400457435772  0.9686192760623681  1.0000
  C   C31       1.0  0.31373958687334025  0.3001809129715429  0.9614469587399741  1.0000
  C   C32       1.0  0.686260413043871  0.6998190877112659  0.03855304160323896  1.0000
  C   C33       1.0  0.23184320699288796  0.17680900384814918  0.9539772977638681  1.0000
  C   C34       1.0  0.7681567927830781  0.8231909958457343  0.04602270244311399  1.0000
  C   C35       1.0  0.16526691626388587  0.15206332226415983  0.01580505859432483  1.0000
  C   C36       1.0  0.8347330836533254  0.847936678418649  0.9841949417488883  1.0000
  C   C37       1.0  0.30745056792095354  0.25274525730670144  0.4434954913335666  1.0000
  C   C38       1.0  0.6925494318550124  0.7472547423871819  0.5565045088734156  1.0000
  C   C39       1.0  0.23556172915659562  0.14300631935310718  0.4629026820403786  1.0000
  C   C40       1.0  0.7644382707606157  0.8569936813297017  0.5370973183028346  1.0000
  C   C41       1.0  0.19211824264324875  0.1569123855623037  0.5360671022380626  1.0000
  C   C42       1.0  0.8078817582798499  0.8430876141292754  0.46393289809333044  1.0000
  C   C43       1.0  0.21966331909372205  0.2793688441826778  0.5908871222581256  1.0000
  C   C44       1.0  0.7803366806822439  0.7206311555112055  0.40911287794885653  1.0000
  C   C45       1.0  0.2889012426487782  0.3890219805718092  0.5708252824628398  1.0000
  C   C46       1.0  0.7110987571282149  0.6109780191248603  0.4291747171704335  1.0000
  C   C47       1.0  0.3322854280296404  0.37557749817048414  0.4978109315036974  1.0000
  C   C48       1.0  0.6677145717473528  0.6244225015261855  0.502189068129576  1.0000
  C   C49       1.0  0.36267913683355896  0.24413599585644866  0.3679543870647061  1.0000
  C   C50       1.0  0.6373208629434343  0.7558640038402208  0.6320456125685672  1.0000
  C   C51       1.0  0.17997670203508245  0.29219073293016956  0.6718248555444409  1.0000
  C   C52       1.0  0.8200232977419107  0.7078092667664999  0.3281751440888323  1.0000
  C   C53       1.0  0.4600393510304414  0.1458224663408327  0.7909102221580948  1.0000
  C   C54       1.0  0.5399606487455246  0.8541775333530507  0.20908977804888731  1.0000
  C   C55       1.0  0.5387641703892407  0.27465140428577217  0.8110835692336571  1.0000
  C   C56       1.0  0.4612358293867252  0.7253485954081114  0.18891643097332503  1.0000
  C   C57       1.0  0.43831259724131383  0.34846364704271177  0.771246300298182  1.0000
  C   C58       1.0  0.561687403682812  0.6515363526516535  0.22875369945950233  1.0000
  C   C59       1.0  0.6480884447342062  0.25237991190110226  0.12709276099458502  1.0000
  C   C60       1.0  0.3519115550417597  0.7476200877927811  0.8729072392123971  1.0000
  C   C61       1.0  0.5614736542023341  0.24122801118973708  0.18989621500174025  1.0000
  C   C62       1.0  0.43852634571487714  0.7587719894930718  0.8101037853414729  1.0000
  C   C63       1.0  0.7487063084628794  0.36530286565863607  0.13213638010166626  1.0000
  C   C64       1.0  0.25129369145433195  0.6346971350241727  0.8678636202415468  1.0000
  C   C65       1.0  0.8236978834144288  0.3716227327045792  0.07025547451210078  1.0000
  C   C66       1.0  0.17630211650380984  0.6283772679810157  0.9297445252574035  1.0000
  C   C67       1.0  0.7984891467736983  0.266360940492693  0.0031108833540688893  1.0000
  C   C68       1.0  0.20151085314351297  0.7336390601901158  0.9968891169891442  1.0000
  C   C69       1.0  0.6989032292287167  0.15344121585592668  0.9980685959307234  1.0000
  C   C70       1.0  0.3010967716943818  0.8465587838356525  0.0019314044006696859  1.0000
  C   C71       1.0  0.6250515197257946  0.14642836902051865  0.060160421436290405  1.0000
  C   C72       1.0  0.3749484813385492  0.8535716316599858  0.9398395790313336  1.0000
  N   N1        1.0  0.8753567285093818  0.10776000550530172  0.2747728720008587  1.0000
  N   N2        1.0  0.12464327140885666  0.8922399951802932  0.7252271277686456  1.0000
  N   N3        1.0  0.7801083644644008  0.2638535662502643  0.691851141075853  1.0000
  N   N4        1.0  0.21989163545383783  0.7361464344353307  0.3081488586936513  1.0000
  N   N5        1.0  0.8021639422682303  0.14028377976116535  0.7022182414718738  1.0000
  N   N6        1.0  0.19783605865589554  0.8597162199331999  0.2977817582858104  1.0000
  N   N7        1.0  0.3406918551561054  0.1284847631502498  0.31524606981731335  1.0000
  N   N8        1.0  0.6593081446198606  0.8715152365436336  0.6847539303896688  1.0000
  N   N9        1.0  0.3084705463857159  0.26481837990959894  0.7313544643109237  1.0000
  N   N10       1.0  0.6915294545384099  0.7351816197847664  0.2686455354467605  1.0000
  N   N11       1.0  0.3202385080910416  0.13996456518330405  0.7418106683767826  1.0000
  N   N12       1.0  0.6797614918271969  0.860035435502291  0.2581893313927218  1.0000
  O   O1        1.0  0.9872789995636119  0.3203091093706734  0.3234733038665044  1.0000
  O   O2        1.0  0.01272100035462646  0.6796908913149216  0.6765266959029999  1.0000
  O   O3        1.0  0.12762638604688195  0.3252356425967963  0.21329083043931493  1.0000
  O   O4        1.0  0.8723736138703294  0.6747643580860124  0.7867091699038982  1.0000
  O   O5        1.0  0.03137719663012237  0.11552262957027294  0.14625281951065794  1.0000
  O   O6        1.0  0.9686228031458437  0.8844773701236104  0.8537471806963242  1.0000
  O   O7        1.0  0.4316609589187839  0.3470487199139926  0.3562241057720037  1.0000
  O   O8        1.0  0.5683390409994545  0.6529512807716022  0.6437758939975006  1.0000
  O   O9        1.0  0.5808437075328325  0.3475751421281079  0.24927789628253394  1.0000
  O   O10       1.0  0.4191562923843787  0.6524248585547009  0.7507221040606793  1.0000
  O   O11       1.0  0.4756415740126532  0.1390616927715168  0.18559740269926853  1.0000
  O   O12       1.0  0.5243584259055853  0.8609383079140782  0.8144025970702358  1.0000
