data_image0
_chemical_formula_structural       H8C16N2O2F4I2
_chemical_formula_sum              "H8 C16 N2 O2 F4 I2"
_cell_length_a       4.21494119785722
_cell_length_b       7.960433972064382
_cell_length_c       13.69249231844352
_cell_angle_alpha    101.45604787826782
_cell_angle_beta     98.83365898413591
_cell_angle_gamma    102.35846878201555

_space_group_name_H-M_alt    "P 1"
_space_group_IT_number       1

loop_
  _space_group_symop_operation_xyz
  'x, y, z'

loop_
  _atom_site_type_symbol
  _atom_site_label
  _atom_site_symmetry_multiplicity
  _atom_site_fract_x
  _atom_site_fract_y
  _atom_site_fract_z
  _atom_site_occupancy
  H   H1        1.0  0.3133259259961201  0.6793034214141254  0.7578016450236799  1.0000
  H   H2        1.0  0.6866740749737761  0.32069657827528064  0.2421983551836014  1.0000
  H   H3        1.0  0.8050680843789692  0.9362080497578009  0.8202130407282812  1.0000
  H   H4        1.0  0.19493191714404184  0.06379195121944577  0.17978695948368895  1.0000
  H   H5        1.0  0.7966693850485439  0.8569324333786507  0.1243745705316689  1.0000
  H   H6        1.0  0.2033306135562988  0.14306756632752624  0.875625429676586  1.0000
  H   H7        1.0  0.2944677152917233  0.6096127086082762  0.048884317204112  1.0000
  H   H8        1.0  0.7055322833131195  0.3903872910979009  0.9511156830041428  1.0000
  C   C1        1.0  0.741793968347939  0.8786179819670927  0.4228632638868849  1.0000
  C   C2        1.0  0.25820603262195724  0.12138201772231325  0.5771367363203965  1.0000
  C   C3        1.0  0.8241035356824861  0.8455856966786387  0.5185855793934369  1.0000
  C   C4        1.0  0.1758964652874102  0.15441430301076725  0.48141442081384456  1.0000
  C   C5        1.0  0.9226600500433421  0.035185194768422905  0.4063319030216531  1.0000
  C   C6        1.0  0.07733995097183365  0.9648148058990889  0.593668096429021  1.0000
  C   C7        1.0  0.43332006610863455  0.7275009222501064  0.837713323013964  1.0000
  C   C8        1.0  0.566679933049323  0.2724990787439113  0.16228667719897974  1.0000
  C   C9        1.0  0.7078556354177582  0.8691619615862205  0.8751987652689884  1.0000
  C   C10       1.0  0.2921443631870845  0.13083803811995645  0.12480123493926637  1.0000
  C   C11       1.0  0.8549171596536157  0.924440777847759  0.9795945193541575  1.0000
  C   C12       1.0  0.14508284080844527  0.07555922153191214  0.020405480091827858  1.0000
  C   C13       1.0  0.7040387338437785  0.8262415738982964  0.042551638866365676  1.0000
  C   C14       1.0  0.2959612666182824  0.17375842548137457  0.9574483605796197  1.0000
  C   C15       1.0  0.42762282340030927  0.6867607668386764  0.0035691466120996605  1.0000
  C   C16       1.0  0.5723771752045334  0.3132392328675005  0.9964308535961551  1.0000
  N   N1        1.0  0.29235195075575554  0.6375707309088917  0.9017048336192613  1.0000
  N   N2        1.0  0.7076480502594202  0.36242926975862017  0.09829516583141278  1.0000
  O   O1        1.0  0.029376992491373027  0.5051555614498201  0.8677441050805778  1.0000
  O   O2        1.0  0.970623009031638  0.4948444395274265  0.1322558951313922  1.0000
  F   F1        1.0  0.6585610497118397  0.6965489927751239  0.5404000294447708  1.0000
  F   F2        1.0  0.341438948893003  0.30345100693105315  0.4595999707634841  1.0000
  F   F3        1.0  0.8555574793825396  0.0739343354553844  0.31407360454114974  1.0000
  F   F4        1.0  0.14444251977541797  0.9260656655386335  0.6859263956717939  1.0000
  I   I1        1.0  0.37689938664627287  0.6955930160127862  0.3063160818482136  1.0000
  I   I2        1.0  0.6231006119585699  0.30440698369339086  0.6936839183600414  1.0000
