data_image0
_chemical_formula_structural       H76C76N8O8F8Cl4I4
_chemical_formula_sum              "H76 C76 N8 O8 F8 Cl4 I4"
_cell_length_a       10.768373901303564
_cell_length_b       10.222449511166209
_cell_length_c       18.058347452409272
_cell_angle_alpha    90.0
_cell_angle_beta     92.68654221710132
_cell_angle_gamma    90.0

_space_group_name_H-M_alt    "P 1"
_space_group_IT_number       1

loop_
  _space_group_symop_operation_xyz
  'x, y, z'

loop_
  _atom_site_type_symbol
  _atom_site_label
  _atom_site_symmetry_multiplicity
  _atom_site_fract_x
  _atom_site_fract_y
  _atom_site_fract_z
  _atom_site_occupancy
  H   H1        1.0  0.8964639383522418  0.3848694205535051  0.651869064720757  1.0000
  H   H2        1.0  0.10353606107636437  0.8848694209855832  0.8481309355752966  1.0000
  H   H3        1.0  0.10353606182949916  0.6151305793324119  0.3481309353984293  1.0000
  H   H4        1.0  0.8964639381769403  0.1151305789003338  0.1518690645464253  1.0000
  H   H5        1.0  0.33087639741447467  0.5509257545217756  0.6367248491961982  1.0000
  H   H6        1.0  0.6691236019663092  0.050925754089697614  0.8632751505454914  1.0000
  H   H7        1.0  0.6691236017910077  0.44907424536414126  0.3632751503711597  1.0000
  H   H8        1.0  0.3308763982154317  0.9490742457962192  0.13672484957369493  1.0000
  H   H9        1.0  0.47674494805447565  0.47890508773385926  0.6681430798895134  1.0000
  H   H10       1.0  0.5232550522547446  0.9789050871876981  0.8318569198496407  1.0000
  H   H11       1.0  0.5232550521272652  0.5210949121520576  0.331856920229673  1.0000
  H   H12       1.0  0.4767449479269964  0.02109491269821874  0.1681430802695456  1.0000
  H   H13       1.0  0.4538040846880416  0.5353814243857912  0.5754976344996471  1.0000
  H   H14       1.0  0.5461959156211785  0.035381423953713215  0.924502365239507  1.0000
  H   H15       1.0  0.546195915445877  0.4646185755001257  0.42450236506517525  1.0000
  H   H16       1.0  0.45380408456056237  0.9646185759322037  0.07549763487967937  1.0000
  H   H17       1.0  0.781947984942019  0.982772001859844  0.7130852751932842  1.0000
  H   H18       1.0  0.21805201443876493  0.48277200240600526  0.7869147245484054  1.0000
  H   H19       1.0  0.21805201431128562  0.01722799802607277  0.28691472492843767  1.0000
  H   H20       1.0  0.7819479856951538  0.5172279974799117  0.21308527501641694  1.0000
  H   H21       1.0  0.83661623465124  0.8203972747274781  0.697987675617646  1.0000
  H   H22       1.0  0.16338376472954397  0.32039727429540027  0.8020123241240437  1.0000
  H   H23       1.0  0.16338376455424247  0.17960272515843861  0.302012323949712  1.0000
  H   H24       1.0  0.8366162354521969  0.6796027255905167  0.19798767599514264  1.0000
  H   H25       1.0  0.7814443408774328  0.8633480801602077  0.7852049670382548  1.0000
  H   H26       1.0  0.21855565943178748  0.3633480807063688  0.7147950327008992  1.0000
  H   H27       1.0  0.21855565930430818  0.1366519197257092  0.2147950330809315  1.0000
  H   H28       1.0  0.7814443407021313  0.636651919179548  0.2852049668639231  1.0000
  H   H29       1.0  0.8173347294831584  0.4896504046835801  0.5313011818074882  1.0000
  H   H30       1.0  0.1826652708738839  0.989650405115658  0.9686988184860298  1.0000
  H   H31       1.0  0.18266527069858238  0.5103495952023368  0.4686988183116981  1.0000
  H   H32       1.0  0.8173347293078569  0.01034959477025876  0.0313011816331565  1.0000
  H   H33       1.0  0.7245112799053686  0.6340674241452472  0.5365628282077074  1.0000
  H   H34       1.0  0.2754887195232376  0.13406742371316926  0.9634371720883461  1.0000
  H   H35       1.0  0.27548871934793606  0.3659325767189088  0.4634371719140145  1.0000
  H   H36       1.0  0.7245112806585033  0.8659325761727477  0.03656282803084007  1.0000
  H   H37       1.0  0.654482795357204  0.47660337130334046  0.5370799880893692  1.0000
  H   H38       1.0  0.34551720499983846  0.9766033707571794  0.9629200122041488  1.0000
  H   H39       1.0  0.34551720482453696  0.5233966285825764  0.4629200120298171  1.0000
  H   H40       1.0  0.6544827951819024  0.023396629128737526  0.03707998791503749  1.0000
  H   H41       1.0  0.7064134991921122  0.5155568970277803  0.874076946260931  1.0000
  H   H42       1.0  0.29358650111710805  0.015556897573941394  0.6259230534782231  1.0000
  H   H43       1.0  0.29358650094180655  0.4844431028581366  0.1259230533038913  1.0000
  H   H44       1.0  0.7064134990646329  0.9844431023119755  0.37407694664096325  1.0000
  H   H45       1.0  0.612974029732518  0.6442063678384184  0.8337976040006638  1.0000
  H   H46       1.0  0.38702596969608805  0.1442063683845796  0.66620239629539  1.0000
  H   H47       1.0  0.3870259695207866  0.35579363204749836  0.16620239612105825  1.0000
  H   H48       1.0  0.6129740304856528  0.8557936315013372  0.33379760382379636  1.0000
  H   H49       1.0  0.7722091242560368  0.6725496753483761  0.8613705682513104  1.0000
  H   H50       1.0  0.22779087517256924  0.17254967589453724  0.6386294320447432  1.0000
  H   H51       1.0  0.22779087499726774  0.32745032453754075  0.1386294318704115  1.0000
  H   H52       1.0  0.7722091250091716  0.8274503239913796  0.3613705680744431  1.0000
  H   H53       1.0  0.957130616020241  0.5321317521850419  0.869840657910763  1.0000
  H   H54       1.0  0.042869383360542815  0.032131752731203035  0.6301593418309267  1.0000
  H   H55       1.0  0.042869383185241305  0.46786824770087493  0.1301593416565949  1.0000
  H   H56       1.0  0.957130616821198  0.9678682481329529  0.3698406582882597  1.0000
  H   H57       1.0  0.04718256546893586  0.37689291649633827  0.9646091028306313  1.0000
  H   H58       1.0  0.9528174339118481  0.8768929159501772  0.5353908969110586  1.0000
  H   H59       1.0  0.952817434712805  0.6231070833895787  0.0353908972885551  1.0000
  H   H60       1.0  0.04718256534145661  0.12310708393573973  0.4646091032106636  1.0000
  H   H61       1.0  0.024119576064658983  0.13861509792268426  0.9465971650753296  1.0000
  H   H62       1.0  0.9758804242923835  0.6386150973765231  0.5534028352181884  1.0000
  H   H63       1.0  0.9758804241170819  0.8613849029414719  0.05340283504385662  1.0000
  H   H64       1.0  0.024119575889357484  0.36138490250939376  0.446597164900998  1.0000
  H   H65       1.0  0.9171297153869452  0.05071507660015389  0.8320485467040849  1.0000
  H   H66       1.0  0.08287028497009728  0.5507150760539928  0.6679514535894333  1.0000
  H   H67       1.0  0.08287028479479577  0.9492849242640021  0.16795145341510154  1.0000
  H   H68       1.0  0.9171297152116435  0.44928492383192414  0.3320485465297531  1.0000
  H   H69       1.0  0.8210143203329884  0.20546901676605886  0.7381529732871276  1.0000
  H   H70       1.0  0.17898567997623183  0.7054690162198978  0.7618470264520265  1.0000
  H   H71       1.0  0.17898567980093033  0.794530983119858  0.2618470262776948  1.0000
  H   H72       1.0  0.821014320205509  0.2945309836660191  0.23815297366715987  1.0000
  H   H73       1.0  0.4740029635004389  0.8898819808367253  0.6706931614343773  1.0000
  H   H74       1.0  0.5259970368087812  0.38988198138288643  0.8293068383047767  1.0000
  H   H75       1.0  0.5259970366334797  0.11011801904919159  0.3293068381304449  1.0000
  H   H76       1.0  0.4740029633729598  0.6101180194812696  0.17069316181440972  1.0000
  C   C1        1.0  0.6082381843805319  0.9296157676904852  0.5098836279661823  1.0000
  C   C2        1.0  0.39176181592868836  0.4296157672584071  0.9901163717729716  1.0000
  C   C3        1.0  0.39176181580120906  0.07038423219543172  0.490116372153004  1.0000
  C   C4        1.0  0.6082381842052303  0.5703842326275097  0.009883627791850577  1.0000
  C   C5        1.0  0.6118893084694897  0.06329167478824639  0.5251000032209366  1.0000
  C   C6        1.0  0.3881106909112941  0.5632916742420853  0.974899996520753  1.0000
  C   C7        1.0  0.38811069171225115  0.9367083250976704  0.47489999689824974  1.0000
  C   C8        1.0  0.6118893082941883  0.4367083256438316  0.025100003046604893  1.0000
  C   C9        1.0  0.4989609944590529  0.8675210281364637  0.48514826573032854  1.0000
  C   C10       1.0  0.5010390055473866  0.36752102770438566  0.014851734214526086  1.0000
  C   C11       1.0  0.501039005722688  0.13247897272769232  0.5148517343888579  1.0000
  C   C12       1.0  0.49896099458653215  0.6324789721815312  0.9851482653502962  1.0000
  C   C13       1.0  0.4321230398292133  0.5549221557713367  0.6333832841167912  1.0000
  C   C14       1.0  0.5678769605278292  0.05492215533925873  0.8666167161767268  1.0000
  C   C15       1.0  0.5678769603525275  0.4450778441145801  0.3666167160023951  1.0000
  C   C16       1.0  0.4321230396539118  0.9450778445466582  0.13338328394245957  1.0000
  C   C17       1.0  0.47666221270411074  0.6896386430961925  0.6543970844162791  1.0000
  C   C18       1.0  0.5233377876529316  0.18963864364235355  0.8456029158772389  1.0000
  C   C19       1.0  0.5233377874776302  0.31036135678972443  0.3456029157029072  1.0000
  C   C20       1.0  0.4766622125288093  0.8103613562435633  0.15439708424194742  1.0000
  C   C21       1.0  0.6025920682640892  0.7130398220150707  0.6811298573473485  1.0000
  C   C22       1.0  0.3974079320929532  0.21303982158299267  0.8188701429461697  1.0000
  C   C23       1.0  0.3974079319176517  0.28696017787084616  0.3188701427718379  1.0000
  C   C24       1.0  0.6025920680887877  0.7869601783029242  0.18112985717301675  1.0000
  C   C25       1.0  0.6385519055761617  0.84166434088051  0.6985950422473943  1.0000
  C   C26       1.0  0.36144809478088064  0.3416643404484321  0.8014049580461238  1.0000
  C   C27       1.0  0.36144809460557914  0.15833565900540678  0.30140495787179206  1.0000
  C   C28       1.0  0.6385519054008603  0.6583356594374847  0.19859504207306253  1.0000
  C   C29       1.0  0.7667130941195734  0.8791364261748985  0.7250592966964547  1.0000
  C   C30       1.0  0.23328690623746892  0.3791364257428206  0.7749407035970634  1.0000
  C   C31       1.0  0.23328690606216737  0.1208635746892574  0.27494070342273164  1.0000
  C   C32       1.0  0.766713093944272  0.6208635741430962  0.22505929652212306  1.0000
  C   C33       1.0  0.7364138096386735  0.5334318515384779  0.5562865024692294  1.0000
  C   C34       1.0  0.2635861897899326  0.033431851106399985  0.9437134978268242  1.0000
  C   C35       1.0  0.26358619054306737  0.46656814932567797  0.4437134976499569  1.0000
  C   C36       1.0  0.7364138094633721  0.9665681487795168  0.056286502294897726  1.0000
  C   C37       1.0  0.74963975246183  0.5302514132331103  0.6384493848795947  1.0000
  C   C38       1.0  0.2503602478952125  0.030251412801032315  0.8615506154139235  1.0000
  C   C39       1.0  0.250360247719911  0.46974858665280655  0.3615506152395917  1.0000
  C   C40       1.0  0.7496397522865286  0.9697485870848845  0.13844938470526288  1.0000
  C   C41       1.0  0.6926810837763231  0.6062056871233241  0.6924340619757577  1.0000
  C   C42       1.0  0.3073189165328971  0.10620568766948521  0.8075659377633964  1.0000
  C   C43       1.0  0.30731891635759556  0.39379431276259286  0.30756593758906464  1.0000
  C   C44       1.0  0.6926810836488438  0.8937943122164317  0.19243406235579  1.0000
  C   C45       1.0  0.7398771839338641  0.5610925212919589  0.7617339968812503  1.0000
  C   C46       1.0  0.26012281642317825  0.06109252183811993  0.7382660034122679  1.0000
  C   C47       1.0  0.26012281624787675  0.438907478593958  0.23826600323793612  1.0000
  C   C48       1.0  0.7398771837585627  0.938907478047797  0.2617339967069185  1.0000
  C   C49       1.0  0.7060768971594586  0.6005290789936762  0.8369862267079651  1.0000
  C   C50       1.0  0.29392310314976144  0.10052907953983742  0.6630137730311889  1.0000
  C   C51       1.0  0.29392310297445995  0.39947092089224057  0.16301377285685723  1.0000
  C   C52       1.0  0.7060768970319795  0.8994709203460796  0.3369862270879974  1.0000
  C   C53       1.0  0.8833200173169297  0.3761346246611443  0.7997278222183397  1.0000
  C   C54       1.0  0.11667998206385433  0.8761346250932224  0.70027217752335  1.0000
  C   C55       1.0  0.1166799828169891  0.6238653752247726  0.20027217734648262  1.0000
  C   C56       1.0  0.8833200171894504  0.12386537479269458  0.299727822598372  1.0000
  C   C57       1.0  0.9474113023860417  0.42667081849958804  0.86232331245832  1.0000
  C   C58       1.0  0.05258869792317854  0.9266708189316661  0.6376766872808342  1.0000
  C   C59       1.0  0.052588697747877035  0.5733291813863289  0.1376766871065024  1.0000
  C   C60       1.0  0.9474113022585625  0.07332918095425084  0.3623233128383522  1.0000
  C   C61       1.0  0.9985413832930115  0.33962219878980154  0.9147636826595149  1.0000
  C   C62       1.0  0.0014586170162087335  0.8396221992218796  0.585236317079639  1.0000
  C   C63       1.0  0.0014586168887294833  0.6603778010961153  0.08523631745967138  1.0000
  C   C64       1.0  0.9985413831655322  0.16037780164227644  0.4147636830395473  1.0000
  C   C65       1.0  0.9872136419009021  0.2049304442845821  0.903860497606685  1.0000
  C   C66       1.0  0.012786357527703953  0.704930443738421  0.5961395026893687  1.0000
  C   C67       1.0  0.012786357352402447  0.7950695565795739  0.09613950251503693  1.0000
  C   C68       1.0  0.987213642654037  0.2950695561474959  0.4038604974298177  1.0000
  C   C69       1.0  0.9261199756501948  0.1561273458241735  0.8397330777357321  1.0000
  C   C70       1.0  0.07388002470684765  0.6561273452780124  0.660266922557786  1.0000
  C   C71       1.0  0.07388002453154614  0.8438726540617434  0.16026692238345427  1.0000
  C   C72       1.0  0.9261199754748932  0.3438726546079045  0.33973307756140037  1.0000
  C   C73       1.0  0.8729121039480383  0.24157490406800486  0.7872348081970605  1.0000
  C   C74       1.0  0.12708789548056773  0.7415749035218437  0.7127651920989932  1.0000
  C   C75       1.0  0.1270878962337025  0.7584250967961512  0.2127651919221258  1.0000
  C   C76       1.0  0.8729121037727369  0.2584250963640732  0.28723480802272877  1.0000
  N   N1        1.0  0.8253238888236492  0.4442013438207697  0.6742965754123927  1.0000
  N   N2        1.0  0.17467611148557086  0.9442013432746085  0.8257034243267614  1.0000
  N   N3        1.0  0.1746761113580916  0.5557986560651472  0.32570342470679364  1.0000
  N   N4        1.0  0.8253238886961701  0.055798656611308325  0.17429657579242497  1.0000
  N   N5        1.0  0.8223167241952511  0.4638957614630469  0.7486340964420011  1.0000
  N   N6        1.0  0.177683275233355  0.9638957618951249  0.7513659038540526  1.0000
  N   N7        1.0  0.17768327598648978  0.53610423842287  0.25136590367718525  1.0000
  N   N8        1.0  0.8223167240199497  0.03610423799079198  0.24863409626766936  1.0000
  O   O1        1.0  0.3997301477579394  0.7843704222986435  0.6468484380026294  1.0000
  O   O2        1.0  0.6002698516706668  0.2843704218665654  0.8531515622934245  1.0000
  O   O3        1.0  0.6002698524238016  0.2156295775872735  0.35315156211655707  1.0000
  O   O4        1.0  0.39973014758263786  0.7156295780193515  0.14684843782829754  1.0000
  O   O5        1.0  0.5575319103089249  0.9381458377001  0.6912950685870672  1.0000
  O   O6        1.0  0.4424680900002952  0.438145838246261  0.8087049311520869  1.0000
  O   O7        1.0  0.4424680898249936  0.06185416218581696  0.30870493097775503  1.0000
  O   O8        1.0  0.5575319101814458  0.5618541616396558  0.1912950689670996  1.0000
  F   F1        1.0  0.713750445424176  0.8570347234711378  0.5185131675838699  1.0000
  F   F2        1.0  0.2862495549328665  0.35703472303905986  0.9814868327096484  1.0000
  F   F3        1.0  0.286249554757565  0.14296527641477905  0.48148683253531654  1.0000
  F   F4        1.0  0.7137504452488744  0.642965276846857  0.01851316740953806  1.0000
  F   F5        1.0  0.5026622398883634  0.7367047136573089  0.47088463270007413  1.0000
  F   F6        1.0  0.4973377601180759  0.23670471420347008  0.029115367244780463  1.0000
  F   F7        1.0  0.49733776024555515  0.2632952862286079  0.5291153668647481  1.0000
  F   F8        1.0  0.5026622400636649  0.7632952856824468  0.9708846328744059  1.0000
  Cl  Cl1       1.0  0.02479931592637926  0.29105022595123337  0.6043899172528101  1.0000
  Cl  Cl2       1.0  0.9752006835022269  0.7910502254050723  0.8956100830432437  1.0000
  Cl  Cl3       1.0  0.9752006833269254  0.7089497739346835  0.3956100828689119  1.0000
  Cl  Cl4       1.0  0.024799316679514048  0.20894977448084465  0.10438991707594271  1.0000
  I   I1        1.0  0.7800329147102438  0.15584329257481988  0.558554521845619  1.0000
  I   I2        1.0  0.2199670847183623  0.6558432920286588  0.9414454784504347  1.0000
  I   I3        1.0  0.2199670854714971  0.8441567073110969  0.44144547827356734  1.0000
  I   I4        1.0  0.7800329145349424  0.3441567078572581  0.05855452167128727  1.0000
