data_image0
_chemical_formula_structural       H18C26N8Br4
_chemical_formula_sum              "H18 C26 N8 Br4"
_cell_length_a       6.826106643587399
_cell_length_b       10.316429389852958
_cell_length_c       10.369583528584359
_cell_angle_alpha    64.925952005652
_cell_angle_beta     75.6803246347789
_cell_angle_gamma    76.8980745370667

_space_group_name_H-M_alt    "P 1"
_space_group_IT_number       1

loop_
  _space_group_symop_operation_xyz
  'x, y, z'

loop_
  _atom_site_type_symbol
  _atom_site_label
  _atom_site_symmetry_multiplicity
  _atom_site_fract_x
  _atom_site_fract_y
  _atom_site_fract_z
  _atom_site_occupancy
  H   H1        1.0  0.5754960484150816  0.19152284191839353  0.7537814588664223  1.0000
  H   H2        1.0  0.42450395143095204  0.8084771575940792  0.2462185416208675  1.0000
  H   H3        1.0  0.6820073322545254  0.16417929623318592  0.4613521640257293  1.0000
  H   H4        1.0  0.3179926678471424  0.8358207036988412  0.5386478353808728  1.0000
  H   H5        1.0  0.7269926560907999  0.33419837956053683  0.20087113003702822  1.0000
  H   H6        1.0  0.2730073437552339  0.6658016199519359  0.7991288704502616  1.0000
  H   H7        1.0  0.8260487501561192  0.6538202317504618  0.33492006086110937  1.0000
  H   H8        1.0  0.17395124994554878  0.3461797681815652  0.6650799385454927  1.0000
  H   H9        1.0  0.7707152014381597  0.4709434704113918  0.5919519674538217  1.0000
  H   H10       1.0  0.22928479866350823  0.5290565295206353  0.4080480319527803  1.0000
  H   H11       1.0  0.6613251395594855  0.550380425612238  0.8061736537454279  1.0000
  H   H12       1.0  0.3386748599681534  0.4496195748960292  0.1938263467401325  1.0000
  H   H13       1.0  0.7082426343574739  0.7247225660790351  0.5454021360233746  1.0000
  H   H14       1.0  0.29175736542579933  0.2752774348487864  0.454597863381498  1.0000
  H   H15       1.0  0.9079360690401932  0.015759130974641197  0.6444162920527676  1.0000
  H   H16       1.0  0.09206393080584044  0.9842408685378315  0.35558370843452225  1.0000
  H   H17       1.0  0.8737420225180197  0.8538424697010448  0.906947232439061  1.0000
  H   H18       1.0  0.12625797732801405  0.146157529811428  0.0930527680482289  1.0000
  C   C1        1.0  0.4069793519047712  0.011525735766341319  0.8888424700478226  1.0000
  C   C2        1.0  0.5930206479412625  0.9884742637461313  0.11115753043946736  1.0000
  C   C3        1.0  0.629826792600884  0.09845645992383599  0.9736415178033178  1.0000
  C   C4        1.0  0.37017320724514985  0.9015435395886366  0.026358482683972253  1.0000
  C   C5        1.0  0.5369720412907634  0.1099524298849227  0.8627671929823211  1.0000
  C   C6        1.0  0.4630279588109046  0.8900475700471043  0.137232806424281  1.0000
  C   C7        1.0  0.7104245044450831  0.27450541407153956  0.4300684833493185  1.0000
  C   C8        1.0  0.2895754956565849  0.7254945858604875  0.5699315160572836  1.0000
  C   C9        1.0  0.7347068213449499  0.36811375074715547  0.28544290540954176  1.0000
  C   C10       1.0  0.2652931784383235  0.6318862501806659  0.7145570939953308  1.0000
  C   C11       1.0  0.7759196055432098  0.5074295322430418  0.25003512576415976  1.0000
  C   C12       1.0  0.22408039424006354  0.49257046868477977  0.749964873640713  1.0000
  C   C13       1.0  0.7922945016650065  0.5463777595987231  0.36053302410312654  1.0000
  C   C14       1.0  0.20770549818102718  0.4536222399137496  0.6394669763841633  1.0000
  C   C15       1.0  0.7615283983976067  0.44487353319703143  0.5021668802164867  1.0000
  C   C16       1.0  0.23847160170406131  0.5551264667349955  0.49783311919011547  1.0000
  C   C17       1.0  0.7670907532353786  0.688831642668648  0.8748894055697269  1.0000
  C   C18       1.0  0.23290924686628955  0.3111683572633789  0.12511059383687512  1.0000
  C   C19       1.0  0.7187906297259776  0.6522648958675928  0.7720826278547098  1.0000
  C   C20       1.0  0.28120937037569016  0.3477351040644343  0.22791737155189226  1.0000
  C   C21       1.0  0.7451120922618875  0.7491751038825584  0.6284539147067321  1.0000
  C   C22       1.0  0.25488790758414626  0.25082489562991417  0.37154608578055776  1.0000
  C   C23       1.0  0.8548955351609776  0.9112532598347711  0.6836389548943359  1.0000
  C   C24       1.0  0.1451044643666615  0.08874674067349607  0.31636104559122447  1.0000
  C   C25       1.0  0.837263563592357  0.8214581188178383  0.829536094573469  1.0000
  C   C26       1.0  0.1627364362536768  0.17854188069463434  0.17046390591382088  1.0000
  N   N1        1.0  0.7218585949004533  0.31118936691416416  0.5377429393119224  1.0000
  N   N2        1.0  0.2781414052012148  0.6888106330178628  0.46225706009467954  1.0000
  N   N3        1.0  0.8111069176831315  0.6104123662531947  0.1061576493709489  1.0000
  N   N4        1.0  0.18889308241853658  0.3895876336788324  0.8938423500356532  1.0000
  N   N5        1.0  0.7338725865255555  0.5882240047768807  0.019704004314680494  1.0000
  N   N6        1.0  0.2661274135761124  0.41177599515514635  0.9802959950919216  1.0000
  N   N7        1.0  0.8102656277534561  0.8771327612691764  0.583291399279262  1.0000
  N   N8        1.0  0.1897343720925777  0.12286723824329643  0.4167086012080278  1.0000
  Br  Br1       1.0  0.29327756531669363  0.027661755597092916  0.731979818820921  1.0000
  Br  Br2       1.0  0.7067224345293399  0.97233824391538  0.2680201816663688  1.0000
  Br  Br3       1.0  0.8079161557655301  0.2337703527772737  0.9321707842811111  1.0000
  Br  Br4       1.0  0.19208384408050344  0.7662296467351992  0.0678292162061787  1.0000
