data_image0
_chemical_formula_structural       H66C68O6S4Br2
_chemical_formula_sum              "H66 C68 O6 S4 Br2"
_cell_length_a       10.346967607781716
_cell_length_b       11.352033532217927
_cell_length_c       13.015197930099564
_cell_angle_alpha    97.59467477187059
_cell_angle_beta     97.11865101997262
_cell_angle_gamma    104.41207255917224

_space_group_name_H-M_alt    "P 1"
_space_group_IT_number       1

loop_
  _space_group_symop_operation_xyz
  'x, y, z'

loop_
  _atom_site_type_symbol
  _atom_site_label
  _atom_site_symmetry_multiplicity
  _atom_site_fract_x
  _atom_site_fract_y
  _atom_site_fract_z
  _atom_site_occupancy
  H   H1        1.0  0.9898607340453655  0.7705224977272652  0.3648411870219955  1.0000
  H   H2        1.0  0.010139266271195034  0.22947750253395463  0.6351588128924557  1.0000
  H   H3        1.0  0.6248753287961429  0.5637672397208523  0.7283522868382978  1.0000
  H   H4        1.0  0.3751246715204177  0.4362327605403676  0.27164771307615343  1.0000
  H   H5        1.0  0.5038557799096035  0.45497158074575866  0.6291618900471222  1.0000
  H   H6        1.0  0.49614422016091575  0.54502841860557  0.370838109865442  1.0000
  H   H7        1.0  0.44751235393555355  0.5474581086864764  0.7283091039497932  1.0000
  H   H8        1.0  0.5524876461349658  0.45254189066485234  0.2716908959627711  1.0000
  H   H9        1.0  0.448439159476772  0.7954175651429135  0.4528419884760005  1.0000
  H   H10       1.0  0.5515608408397886  0.2045824351183064  0.5471580114384507  1.0000
  H   H11       1.0  0.22778920259746752  0.7714792105825632  0.34646264306916874  1.0000
  H   H12       1.0  0.7722107977190931  0.22852078967865663  0.6535373568452825  1.0000
  H   H13       1.0  0.068961578931481  0.43304716507391067  0.4588417925762139  1.0000
  H   H14       1.0  0.9310384203459413  0.5669528344305091  0.5411582081285371  1.0000
  H   H15       1.0  0.2856013600686987  0.4599918234397103  0.5706646459360687  1.0000
  H   H16       1.0  0.7143986402478618  0.5400081768215097  0.42933535397838246  1.0000
  H   H17       1.0  0.9190688223512266  0.5075348295533559  0.34844143692236734  1.0000
  H   H18       1.0  0.08093117699957465  0.49246517070658985  0.6515585629986151  1.0000
  H   H19       1.0  0.06524957338645691  0.6745813565617735  0.2090740196234486  1.0000
  H   H20       1.0  0.9347504261370068  0.3254186438525374  0.7909259810831893  1.0000
  H   H21       1.0  0.05062118324571427  0.7562694012839981  0.09209284946922047  1.0000
  H   H22       1.0  0.9493788170708463  0.2437305989772218  0.9079071504452307  1.0000
  H   H23       1.0  0.01883732335550118  0.8805945234934088  0.9555300052592919  1.0000
  H   H24       1.0  0.9811626769610592  0.11940547676781095  0.04446999465515934  1.0000
  H   H25       1.0  0.5872562248006072  0.7313133856555823  0.9183194077556018  1.0000
  H   H26       1.0  0.412743774550194  0.2686866146043635  0.08168059216538053  1.0000
  H   H27       1.0  0.6199864886819638  0.6012645209084584  0.05434387478404813  1.0000
  H   H28       1.0  0.3800135116345968  0.39873547935276155  0.9456561251304031  1.0000
  H   H29       1.0  0.7095062466053601  0.950194493426285  0.8702630845490269  1.0000
  H   H30       1.0  0.2904937537112005  0.049805506834934794  0.12973691536542428  1.0000
  H   H31       1.0  0.7363769209561073  0.8413680815932383  0.7706487563377498  1.0000
  H   H32       1.0  0.2636230793604532  0.15863191866798151  0.2293512435767013  1.0000
  H   H33       1.0  0.8756490627641622  0.9620798641712291  0.8416816029666773  1.0000
  H   H34       1.0  0.12435093675930146  0.03792013624308169  0.1583183977399606  1.0000
  H   H35       1.0  0.7547227946412564  0.39971314762163623  0.9969176565927949  1.0000
  H   H36       1.0  0.24527720567530428  0.6002868526395837  0.0030823433216564133  1.0000
  H   H37       1.0  0.5745695385279563  0.36036468475962974  0.9691132074755889  1.0000
  H   H38       1.0  0.4254304617886043  0.6396353155015901  0.030886792438862224  1.0000
  H   H39       1.0  0.6748678041772191  0.42797983723392136  0.8767988110740291  1.0000
  H   H40       1.0  0.3251321958933001  0.5720201621174074  0.12320118883853515  1.0000
  H   H41       1.0  0.6063149617934168  0.003385466214196653  0.7233162906422077  1.0000
  H   H42       1.0  0.3936850385231437  0.9966145340470232  0.27668370927224356  1.0000
  H   H43       1.0  0.42178958235489  0.9224196921047868  0.5730105985511934  1.0000
  H   H44       1.0  0.5782104169959111  0.07758030815515904  0.42698940136978897  1.0000
  H   H45       1.0  0.2744375196460838  0.2431560296697244  0.643210842342994  1.0000
  H   H46       1.0  0.7255624794586761  0.7568439696803303  0.35678915757610147  1.0000
  H   H47       1.0  0.453928025714171  0.32237834347229477  0.7947238949251074  1.0000
  H   H48       1.0  0.5460719746023895  0.6776216567889252  0.20527610498934376  1.0000
  H   H49       1.0  0.23349099667912682  0.9323946386469588  0.4650713918399183  1.0000
  H   H50       1.0  0.7665090025982956  0.06760536085746095  0.5349286088648327  1.0000
  H   H51       1.0  0.14091475951926608  0.17014222665238718  0.4860327689999514  1.0000
  H   H52       1.0  0.8590852407972946  0.8298577736088328  0.5139672309144999  1.0000
  H   H53       1.0  0.8799840691614912  0.915852823836697  0.18180526209455558  1.0000
  H   H54       1.0  0.12001593115506935  0.08414717642452302  0.8181947378198956  1.0000
  H   H55       1.0  0.7024823443512707  0.9999747924385979  0.09613242378406543  1.0000
  H   H56       1.0  0.29751765596528995  2.5207822621975642e-05  0.9038675761303858  1.0000
  H   H57       1.0  0.8081809748542275  0.30678741822492744  0.3514803452256452  1.0000
  H   H58       1.0  0.19181902546233312  0.6932125820362924  0.6485196546888059  1.0000
  H   H59       1.0  0.9857566159308404  0.2263553750207458  0.43488135840540476  1.0000
  H   H60       1.0  0.014243383173919474  0.7736446243293089  0.5651186415136906  1.0000
  H   H61       1.0  0.5885544997267786  0.15919306444866563  0.09022073619599331  1.0000
  H   H62       1.0  0.4114454996240227  0.8408069358112802  0.909779263724989  1.0000
  H   H63       1.0  0.6689125412807762  0.30773762776658503  0.1683310876274779  1.0000
  H   H64       1.0  0.33108745807002515  0.6922623724933608  0.8316689122935045  1.0000
  H   H65       1.0  0.5512786425414282  0.197946380507452  0.21885812541010544  1.0000
  H   H66       1.0  0.4487213568093732  0.8020536197524937  0.781141874510877  1.0000
  C   C1        1.0  0.5257332117087598  0.5455097829813089  0.6789558894196467  1.0000
  C   C2        1.0  0.4742667886078009  0.454490217279911  0.32104411049480464  1.0000
  C   C3        1.0  0.38277826950497396  0.6329284358035924  0.5231618210432115  1.0000
  C   C4        1.0  0.6172217308115867  0.3670715644576275  0.47683817887123964  1.0000
  C   C5        1.0  0.3640819514522846  0.7173425148939894  0.4564242098281412  1.0000
  C   C6        1.0  0.635918048864276  0.28265748536723045  0.5435757900863101  1.0000
  C   C7        1.0  0.23958382450011778  0.7024679717244865  0.3952091641053819  1.0000
  C   C8        1.0  0.7604161758164428  0.2975320285367334  0.6047908358090693  1.0000
  C   C9        1.0  0.12975695134728418  0.6016152516683245  0.3966788974625213  1.0000
  C   C10       1.0  0.8702430480035172  0.39838474859162126  0.603321102458461  1.0000
  C   C11       1.0  0.1511951515604165  0.5143063669489986  0.4584266208314671  1.0000
  C   C12       1.0  0.8488048486827651  0.4856936325566953  0.5415733798667527  1.0000
  C   C13       1.0  0.275238647842791  0.5291744608470463  0.5220542867133406  1.0000
  C   C14       1.0  0.7247613524737696  0.4708255394141736  0.47794571320111046  1.0000
  C   C15       1.0  0.9906535259313948  0.5931303275540831  0.33921090248647895  1.0000
  C   C16       1.0  0.009346473173365235  0.40686967179597155  0.6607890974326164  1.0000
  C   C17       1.0  0.9862274269733946  0.5965489826402034  0.22209325988308878  1.0000
  C   C18       1.0  0.013772573097124673  0.4034510167111254  0.7779067400294755  1.0000
  C   C19       1.0  0.8462465886157479  0.5928782696370596  0.16630807834900854  1.0000
  C   C20       1.0  0.15375341090771577  0.40712173077725133  0.8336919223576295  1.0000
  C   C21       1.0  0.8359685162744259  0.6701513103581068  0.08396257455527102  1.0000
  C   C22       1.0  0.1640314840421347  0.329848689903113  0.9160374253591802  1.0000
  C   C23       1.0  0.9481719845855684  0.748828635024148  0.05469006391521456  1.0000
  C   C24       1.0  0.05182801451919155  0.25117136432590664  0.9453099360038809  1.0000
  C   C25       1.0  0.9305697816056349  0.8204454239693396  0.9776685253780093  1.0000
  C   C26       1.0  0.06943021846488438  0.1795545753819892  0.0223314745345549  1.0000
  C   C27       1.0  0.8008437350394414  0.8168864303052062  0.9284719049549703  1.0000
  C   C28       1.0  0.19915626431135988  0.18311356995473954  0.07152809496601195  1.0000
  C   C29       1.0  0.6887950638046696  0.7363286453081792  0.956660412131651  1.0000
  C   C30       1.0  0.31120493554613166  0.2636713549517666  0.04333958778933131  1.0000
  C   C31       1.0  0.7060993458917705  0.6642488342168273  0.03245707057970873  1.0000
  C   C32       1.0  0.29390065442479013  0.33575116604439253  0.9675429293347424  1.0000
  C   C33       1.0  0.7806403424747496  0.8971532378544913  0.8487368195139605  1.0000
  C   C34       1.0  0.21935965784181102  0.10284676240672865  0.15126318040049067  1.0000
  C   C35       1.0  0.6666211337585507  0.3654617363305613  0.9344662205615528  1.0000
  C   C36       1.0  0.3333788665580098  0.6345382639306585  0.06553377935289842  1.0000
  C   C37       1.0  0.5433211608140793  0.16850670310797727  0.7707642411429638  1.0000
  C   C38       1.0  0.45667883950248117  0.8314932971532426  0.2292357587714873  1.0000
  C   C39       1.0  0.533140758090334  0.05554046766760136  0.7065177349406045  1.0000
  C   C40       1.0  0.46685924126046746  0.9444595325923446  0.2934822649803778  1.0000
  C   C41       1.0  0.43020887171603456  0.010694463213693804  0.6213572368808102  1.0000
  C   C42       1.0  0.5697911283544848  0.9893055361376349  0.37864276303175415  1.0000
  C   C43       1.0  0.3357680304643233  0.07697843686823026  0.5946594044305196  1.0000
  C   C44       1.0  0.6642319698522373  0.9230215633929896  0.40534059548393153  1.0000
  C   C45       1.0  0.34690555681045593  0.1900159661823224  0.6596886916386462  1.0000
  C   C46       1.0  0.6530944435061048  0.8099840340788976  0.34031130827580497  1.0000
  C   C47       1.0  0.4487189338881645  0.23502643930049164  0.7463437518872061  1.0000
  C   C48       1.0  0.5512810664283961  0.7649735609607283  0.253656248027245  1.0000
  C   C49       1.0  0.2354713952531767  0.025241269009052672  0.5019046585545288  1.0000
  C   C50       1.0  0.7645286050633838  0.9747587312521672  0.4980953413599224  1.0000
  C   C51       1.0  0.14457119670299273  0.07749537922284488  0.4547326455231771  1.0000
  C   C52       1.0  0.8554288036135679  0.9225046210383752  0.545267354391274  1.0000
  C   C53       1.0  0.050175739015218095  0.009412978648751713  0.36054683804884297  1.0000
  C   C54       1.0  0.9498242603355833  0.9905870216111942  0.6394531618721393  1.0000
  C   C55       1.0  0.9482409229338041  0.06571265263909659  0.31237538976195456  1.0000
  C   C56       1.0  0.05175907738275642  0.9342873476221233  0.6876246101524967  1.0000
  C   C57       1.0  0.8652940008756035  0.002877619282376975  0.2171724546906051  1.0000
  C   C58       1.0  0.13470599919491583  0.9971223800689517  0.7828275452219592  1.0000
  C   C59       1.0  0.7658121680611918  0.0500453677550497  0.17002921798021756  1.0000
  C   C60       1.0  0.23418783225536896  0.9499546325061703  0.8299707819342337  1.0000
  C   C61       1.0  0.7435138541836895  0.16006637499617685  0.2174176894611709  1.0000
  C   C62       1.0  0.2564861451671118  0.839933625263769  0.7825823104598114  1.0000
  C   C63       1.0  0.8256360351685641  0.22223385948598304  0.3127894182835297  1.0000
  C   C64       1.0  0.1743639641822373  0.7777661407739628  0.6872105816374527  1.0000
  C   C65       1.0  0.9267701264405613  0.1766591271696874  0.35956771230046713  1.0000
  C   C66       1.0  0.07322987266419878  0.8233408721803672  0.6404322876186284  1.0000
  C   C67       1.0  0.6321080866691103  0.20858943109022418  0.17024271920686757  1.0000
  C   C68       1.0  0.367891912681691  0.7914105691697216  0.8297572807141148  1.0000
  O   O1        1.0  0.0538524088898639  0.9035756568363408  0.31895055002607187  1.0000
  O   O2        1.0  0.9461475904609374  0.09642434342360508  0.6810494498949106  1.0000
  O   O3        1.0  0.9386997009640591  0.6916647551407736  0.3833863799859812  1.0000
  O   O4        1.0  0.0613002993525016  0.30833524512044624  0.61661361992847  1.0000
  O   O5        1.0  0.7443367822583936  0.5250483781916173  0.18921755109903288  1.0000
  O   O6        1.0  0.25566321684636645  0.4749516211584374  0.8107824488200626  1.0000
  S   S1        1.0  0.54306366444311  0.666202420834284  0.6007701035773275  1.0000
  S   S2        1.0  0.4569363358734505  0.3337975794269359  0.3992298963371237  1.0000
  S   S3        1.0  0.6753195400446517  0.21538501489805548  0.8773849394356517  1.0000
  S   S4        1.0  0.3246804602719089  0.7846149853631642  0.12261506047879951  1.0000
  Br  Br1       1.0  0.02918048520397025  0.4491243104540336  0.15055269908711083  1.0000
  Br  Br2       1.0  0.9708195151125903  0.5508756898071864  0.8494473008273404  1.0000
