data_image0
_chemical_formula_structural       H40C64N8F16Cl16I8
_chemical_formula_sum              "H40 C64 N8 F16 Cl16 I8"
_cell_length_a       14.763405040507191
_cell_length_b       7.489556085045411
_cell_length_c       20.640995251256005
_cell_angle_alpha    90.0
_cell_angle_beta     107.99481248218355
_cell_angle_gamma    90.0

_space_group_name_H-M_alt    "P 1"
_space_group_IT_number       1

loop_
  _space_group_symop_operation_xyz
  'x, y, z'

loop_
  _atom_site_type_symbol
  _atom_site_label
  _atom_site_symmetry_multiplicity
  _atom_site_fract_x
  _atom_site_fract_y
  _atom_site_fract_z
  _atom_site_occupancy
  H   H1        1.0  0.30522171445699053  0.8147681932957981  0.8104072102694279  1.0000
  H   H2        1.0  0.19477828524584592  0.3147681936326278  0.6895927895459141  1.0000
  H   H3        1.0  0.6947782851327486  0.185231807365735  0.189592789486943  1.0000
  H   H4        1.0  0.8052217143438933  0.6852318070289052  0.310407210210457  1.0000
  H   H5        1.0  0.3309148104524551  0.5512945804951489  0.8771931230859624  1.0000
  H   H6        1.0  0.16908518925038143  0.05129458083197872  0.6228068767293795  1.0000
  H   H7        1.0  0.6690851891372842  0.44870541883119147  0.12280687667040849  1.0000
  H   H8        1.0  0.8309148112374279  0.9487054184943616  0.37719312353559653  1.0000
  H   H9        1.0  0.4111289959789321  0.8919526703777257  0.05728216388707152  1.0000
  H   H10       1.0  0.0888710043755021  0.3919526693793629  0.4427178365001111  1.0000
  H   H11       1.0  0.5888710038318662  0.10804733028380727  0.9427178363786887  1.0000
  H   H12       1.0  0.9111289961123074  0.6080473299469774  0.557282163764865  1.0000
  H   H13       1.0  0.3182835460933736  0.1019606023813319  0.8517639259339232  1.0000
  H   H14       1.0  0.181716453830522  0.6019606020445021  0.6482360743908079  1.0000
  H   H15       1.0  0.6817164537174248  0.8980393982802011  0.14823607433183686  1.0000
  H   H16       1.0  0.8182835459802763  0.39803939861703086  0.35176392587495225  1.0000
  H   H17       1.0  0.37484915392399154  0.15328698483109615  0.9803153014160254  1.0000
  H   H18       1.0  0.125150845999904  0.653286985829459  0.5196846989087056  1.0000
  H   H19       1.0  0.6251508458868068  0.8467130144952443  0.01968469884973469  1.0000
  H   H20       1.0  0.8748491544879053  0.346713014832074  0.48031530135627026  1.0000
  H   H21       1.0  0.45632580597672623  0.3774226747088791  0.1851098629738438  1.0000
  H   H22       1.0  0.04367419415664891  0.8774226743720492  0.3148901369039496  1.0000
  H   H23       1.0  0.543674194290024  0.6225773259526539  0.814890136781743  1.0000
  H   H24       1.0  0.9563258054330903  0.12257732628948377  0.6851098628524214  1.0000
  H   H25       1.0  0.31401987383315366  0.5190750220513808  0.1819789020582883  1.0000
  H   H26       1.0  0.18598012562321042  0.01907502238821058  0.31802109782028926  1.0000
  H   H27       1.0  0.6859801257565855  0.4809249772749596  0.8180210976980826  1.0000
  H   H28       1.0  0.8140198739665286  0.9809249782733224  0.6819789019360817  1.0000
  H   H29       1.0  0.47486186169188355  0.9949555187762263  0.2663748701273425  1.0000
  H   H30       1.0  0.025138138662550782  0.49495551911305613  0.23362513025984014  1.0000
  H   H31       1.0  0.5251381381189149  0.0050444805501140624  0.7336251301384177  1.0000
  H   H32       1.0  0.9748618618252587  0.5050444815484769  0.7663748700051358  1.0000
  H   H33       1.0  0.6093127242768922  0.5077626987256805  0.22988963700881732  1.0000
  H   H34       1.0  0.8906872760978201  0.007762697727317638  0.27011036319718773  1.0000
  H   H35       1.0  0.39068727621091726  0.4922373019358525  0.7701103632561587  1.0000
  H   H36       1.0  0.10931272438998936  0.9922373015990228  0.7298896370677883  1.0000
  H   H37       1.0  0.6229191403967803  0.8308639376404736  0.2685693351247919  1.0000
  H   H38       1.0  0.8770808599779317  0.33086393797730335  0.23143066508121307  1.0000
  H   H39       1.0  0.37708085986996986  0.16913606168586684  0.7314306646307949  1.0000
  H   H40       1.0  0.12291914050987761  0.669136061349037  0.7685693351837629  1.0000
  C   C1        1.0  0.42658374997552506  0.724929955573873  0.4755019115578285  1.0000
  C   C2        1.0  0.07341625015785003  0.22492995591070275  0.024498088319964896  1.0000
  C   C3        1.0  0.5734162502912251  0.2750700437524674  0.5244980881977582  1.0000
  C   C4        1.0  0.9265837496529483  0.7750700447508302  0.9755019119457953  1.0000
  C   C5        1.0  0.46601326289124456  0.7820235369750205  0.5433338709127726  1.0000
  C   C6        1.0  0.03398673703265112  0.28202353731185026  0.9566661294119586  1.0000
  C   C7        1.0  0.5339867369195538  0.21797646235131987  0.4566661293529875  1.0000
  C   C8        1.0  0.9660132634551584  0.7179764633496827  0.04333387085301746  1.0000
  C   C9        1.0  0.5852794831054018  0.7182923752639715  0.4628056708205982  1.0000
  C   C10       1.0  0.9147205170482512  0.2182923756008013  0.03719432887601755  1.0000
  C   C11       1.0  0.4147205164843374  0.2817076240623688  0.5371943289357727  1.0000
  C   C12       1.0  0.08527948321849917  0.781707623725539  0.9628056708795694  1.0000
  C   C13       1.0  0.48718168951517143  0.6919963681623962  0.4367046206712388  1.0000
  C   C14       1.0  0.012818309941192655  0.19199636716403348  0.06329537920733874  1.0000
  C   C15       1.0  0.5128183100745678  0.30800363249913676  0.5632953790851322  1.0000
  C   C16       1.0  0.9871816896485466  0.8080036321623069  0.9367046205490323  1.0000
  C   C17       1.0  0.564004249360234  0.8102503661220938  0.5689047614247311  1.0000
  C   C18       1.0  0.9359957505839394  0.310250365123731  0.9310952387188225  1.0000
  C   C19       1.0  0.43599575112757527  0.18974963453943922  0.43109523884024487  1.0000
  C   C20       1.0  0.06400424922685895  0.6897496342026094  0.06890476154693771  1.0000
  C   C21       1.0  0.6239446027037828  0.7788241123725603  0.529508550945128  1.0000
  C   C22       1.0  0.8760553972403907  0.27882411270939006  0.9704914491984256  1.0000
  C   C23       1.0  0.3760553977840265  0.22117588695378013  0.4704914493198478  1.0000
  C   C24       1.0  0.12394460257040767  0.7211758866169503  0.029508551067334715  1.0000
  C   C25       1.0  0.37562012873460143  0.700233903110988  0.9739609525092955  1.0000
  C   C26       1.0  0.1243798718663052  0.2002339034478179  0.5260390478146515  1.0000
  C   C27       1.0  0.624379871753208  0.2997660962153523  0.026039047755680503  1.0000
  C   C28       1.0  0.8756201286215042  0.799766097213715  0.4739609524503245  1.0000
  C   C29       1.0  0.34440684447805486  0.6797309175860364  0.903514016375738  1.0000
  C   C30       1.0  0.15559315522478162  0.17973091658767357  0.5964859834396039  1.0000
  C   C31       1.0  0.6555931553327434  0.32026908307549656  0.09648598389002211  1.0000
  C   C32       1.0  0.8444068443649576  0.8202690827386667  0.40351401631676703  1.0000
  C   C33       1.0  0.38736899355630977  0.871439964650512  0.002224949738334136  1.0000
  C   C34       1.0  0.11263100657706537  0.3714399636521491  0.4977750501394593  1.0000
  C   C35       1.0  0.6126310069314996  0.12856003601102106  0.997775050526642  1.0000
  C   C36       1.0  0.8873689930126738  0.6285600356741913  0.5022249496169117  1.0000
  C   C37       1.0  0.33681638545206094  0.9939841581351696  0.8891535407047126  1.0000
  C   C38       1.0  0.16318361447183466  0.4939841584719994  0.6108464596200184  1.0000
  C   C39       1.0  0.6631836143587375  0.006015842526363405  0.11084645956104743  1.0000
  C   C40       1.0  0.8368163853389636  0.5060158421895337  0.3891535406457417  1.0000
  C   C41       1.0  0.36736530420165125  0.01915985652160717  0.9590784053324094  1.0000
  C   C42       1.0  0.13263469639925538  0.5191598561847773  0.5409215949915376  1.0000
  C   C43       1.0  0.632634696286158  0.9808401428047332  0.040921594932566516  1.0000
  C   C44       1.0  0.867365304088554  0.480840143141563  0.45907840527343846  1.0000
  C   C45       1.0  0.3798613054393899  0.5937452085951016  0.2031800282798026  1.0000
  C   C46       1.0  0.12013869469398518  0.09374520893193136  0.2968199715979908  1.0000
  C   C47       1.0  0.6201386950484195  0.40625479206643145  0.7968199719851734  1.0000
  C   C48       1.0  0.879861305572765  0.9062547917296017  0.703180028157596  1.0000
  C   C49       1.0  0.383552166821803  0.7690280017397155  0.22593608720316397  1.0000
  C   C50       1.0  0.11644783331157207  0.26902800207654537  0.27406391267462943  1.0000
  C   C51       1.0  0.6164478327679361  0.2309719975866248  0.774063912553207  1.0000
  C   C52       1.0  0.8835521669551781  0.730971997249795  0.7259360870809572  1.0000
  C   C53       1.0  0.47139874980497753  0.8568337211351679  0.24934500055359154  1.0000
  C   C54       1.0  0.028601250549456746  0.3568337201368051  0.2506549998335911  1.0000
  C   C55       1.0  0.5286012506828318  0.1431662795263651  0.7506549997113845  1.0000
  C   C56       1.0  0.9713987499383526  0.6431662791895353  0.749345000431385  1.0000
  C   C57       1.0  0.5476502086424277  0.5877996212339341  0.22975418587328378  1.0000
  C   C58       1.0  0.9523497908342141  0.08779962157076401  0.27024581382411617  1.0000
  C   C59       1.0  0.4523497909473114  0.4122003794275988  0.7702458138830872  1.0000
  C   C60       1.0  0.04765020875552508  0.9122003790907689  0.7297541859322547  1.0000
  C   C61       1.0  0.5540282979606651  0.7641786569203984  0.251257431221979  1.0000
  C   C62       1.0  0.945971702192988  0.2641786572572283  0.2487425684746368  1.0000
  C   C63       1.0  0.4459717016290741  0.23582134240594194  0.7487425685343918  1.0000
  C   C64       1.0  0.05402829807376232  0.7358213434043047  0.75125743128095  1.0000
  N   N1        1.0  0.32624427855448307  0.8266763423218907  0.8642615026799995  1.0000
  N   N2        1.0  0.17375572114835341  0.3266763413235279  0.6357384971353425  1.0000
  N   N3        1.0  0.6737557210352562  0.1733236583396423  0.1357384970763714  1.0000
  N   N4        1.0  0.8262442791183968  0.6733236580028125  0.3642615026202444  1.0000
  N   N5        1.0  0.46161098475963624  0.5095847573156747  0.20634893154826467  1.0000
  N   N6        1.0  0.03838901537373885  0.009584757652504413  0.29365106832952864  1.0000
  N   N7        1.0  0.5383890148301029  0.4904152433458584  0.7936510682081063  1.0000
  N   N8        1.0  0.9616109851140704  0.9904152430090286  0.7063489319354472  1.0000
  F   F1        1.0  0.45244668353517375  0.6311068942307467  0.37177541324619323  1.0000
  F   F2        1.0  0.04755331659820141  0.13110689456757654  0.12822458663160013  1.0000
  F   F3        1.0  0.5475533167315766  0.36889310643078627  0.6282245865093936  1.0000
  F   F4        1.0  0.9524466838896081  0.8688931060939565  0.871775413633376  1.0000
  F   F5        1.0  0.6046630251530675  0.8694440733279477  0.6335268008111571  1.0000
  F   F6        1.0  0.895336974791106  0.3694440736647776  0.8664731993323964  1.0000
  F   F7        1.0  0.3953369746577308  0.13055592599839264  0.3664731994546031  1.0000
  F   F8        1.0  0.10466302479863328  0.6305559269967553  0.13352680042397447  1.0000
  F   F9        1.0  0.6426902627027605  0.6850475050510142  0.42440147503826575  1.0000
  F   F10       1.0  0.8573097376719516  0.1850475053878439  0.07559852516773928  1.0000
  F   F11       1.0  0.3573097377850489  0.3149524942753263  0.5755985252267103  1.0000
  F   F12       1.0  0.14269026259479864  0.8149524952736891  0.9244014745878476  1.0000
  F   F13       1.0  0.718659895876197  0.8057331010644819  0.5556985816655318  1.0000
  F   F14       1.0  0.7813401040679764  0.3057331014013117  0.9443014184780218  1.0000
  F   F15       1.0  0.28134010393460124  0.19426689959705107  0.4443014186002284  1.0000
  F   F16       1.0  0.21865989552176285  0.6942668992602212  0.05569858127834911  1.0000
  Cl  Cl1       1.0  0.26925451081946816  0.8571696342348807  0.71136125509574  1.0000
  Cl  Cl2       1.0  0.23074548956037932  0.3571696332365178  0.7886387447188178  1.0000
  Cl  Cl3       1.0  0.7307454894472821  0.14283036642665237  0.28863874465984685  1.0000
  Cl  Cl4       1.0  0.7692545107063707  0.6428303660898226  0.21136125503676892  1.0000
  Cl  Cl5       1.0  0.44009625498882543  0.16297931227690363  0.13347879775587207  1.0000
  Cl  Cl6       1.0  0.05990374514454963  0.6629793119400738  0.36652120212192135  1.0000
  Cl  Cl7       1.0  0.5599037454989838  0.8370206870494367  0.8665212025091039  1.0000
  Cl  Cl8       1.0  0.9400962551222006  0.33702068738626656  0.6334787976336654  1.0000
  Cl  Cl9       1.0  0.3980361376947277  0.5144384548629277  0.025198595353676807  1.0000
  Cl  Cl10      1.0  0.10196386243864738  0.014438455199757588  0.4748014045241165  1.0000
  Cl  Cl11      1.0  0.6019638625720225  0.4855615444634126  0.97480140440191  1.0000
  Cl  Cl12      1.0  0.8980361378281029  0.9855615441265828  0.5251985952314703  1.0000
  Cl  Cl13      1.0  0.2805418059264207  0.8751087054527691  0.22490862031789158  1.0000
  Cl  Cl14      1.0  0.21945819442801356  0.375108705789599  0.275091380069291  1.0000
  Cl  Cl15      1.0  0.7194581945613887  0.1248912938735712  0.7750913799470844  1.0000
  Cl  Cl16      1.0  0.7805418060597958  0.6248912935367413  0.7249086201956849  1.0000
  I   I1        1.0  0.38474391730284213  0.8166258521265771  0.6109747622440028  1.0000
  I   I2        1.0  0.11525608329806447  0.3166258524634069  0.8890252380799442  1.0000
  I   I3        1.0  0.6152560831849673  0.18337414853495587  0.3890252380209732  1.0000
  I   I4        1.0  0.8847439171897448  0.683374148198126  0.11097476218503179  1.0000
  I   I5        1.0  0.27819241636249237  0.6919751626332306  0.42841176111992624  1.0000
  I   I6        1.0  0.2218075837708827  0.19197516297006034  0.07158823875786714  1.0000
  I   I7        1.0  0.7218075841253169  0.30802483669310987  0.5715882391450497  1.0000
  I   I8        1.0  0.7781924164958675  0.8080248376914727  0.9284117609977196  1.0000
