data_image0
_chemical_formula_structural       H20C32N4F8Cl4Br4I4
_chemical_formula_sum              "H20 C32 N4 F8 Cl4 Br4 I4"
_cell_length_a       7.287371860638824
_cell_length_b       11.211635963224477
_cell_length_c       14.954981340788471
_cell_angle_alpha    109.52828556957463
_cell_angle_beta     94.67388661023706
_cell_angle_gamma    100.1259520959643

_space_group_name_H-M_alt    "P 1"
_space_group_IT_number       1

loop_
  _space_group_symop_operation_xyz
  'x, y, z'

loop_
  _atom_site_type_symbol
  _atom_site_label
  _atom_site_symmetry_multiplicity
  _atom_site_fract_x
  _atom_site_fract_y
  _atom_site_fract_z
  _atom_site_occupancy
  H   H1        1.0  0.17086906511621477  0.13528748691355402  0.008886817262036677  1.0000
  H   H2        1.0  0.8291309345057717  0.8647125133342952  0.9911131833232253  1.0000
  H   H3        1.0  0.499685729155236  0.588909062446998  0.1452715494692236  1.0000
  H   H4        1.0  0.5003142702576165  0.4110909374572753  0.8547284503983076  1.0000
  H   H5        1.0  0.9817722388626521  0.2894017085421432  0.043314111053380774  1.0000
  H   H6        1.0  0.018227760550200436  0.7105982913621302  0.9566858888141504  1.0000
  H   H7        1.0  0.49464833165437305  0.17785697478524523  0.040693942105122005  1.0000
  H   H8        1.0  0.5053516679676135  0.8221430254626041  0.95930605848014  1.0000
  H   H9        1.0  0.6766796939078435  0.4125529383375816  0.10989859607729564  1.0000
  H   H10       1.0  0.32332030687820973  0.5874470615690458  0.8901014037922337  1.0000
  H   H11       1.0  0.589181437799833  0.877383201276946  0.2212931474685675  1.0000
  H   H12       1.0  0.41081856161301955  0.12261679862732736  0.7787068523989636  1.0000
  H   H13       1.0  0.037943129564227754  0.06355531332723899  0.29737889935984707  1.0000
  H   H14       1.0  0.9620568712218256  0.9364446865793884  0.7026211005096823  1.0000
  H   H15       1.0  0.5044331826074632  0.9050033942623631  0.37213913709050733  1.0000
  H   H16       1.0  0.4955668168053895  0.09499660564191036  0.6278608627770239  1.0000
  H   H17       1.0  0.1419852576641959  0.030676212891300035  0.13759086740464874  1.0000
  H   H18       1.0  0.8580147431218574  0.9693237870153274  0.8624091324648806  1.0000
  H   H19       1.0  0.43525254562772253  0.9412903590793895  0.10434003005185903  1.0000
  H   H20       1.0  0.5647474537851301  0.058709640824883974  0.8956599698156723  1.0000
  C   C1        1.0  0.24155994831151134  0.4818444764684993  0.5516842705701165  1.0000
  C   C2        1.0  0.7584400524745419  0.5181555234381281  0.4483157292994128  1.0000
  C   C3        1.0  0.25329876864147105  0.6160104977635443  0.5793906442371944  1.0000
  C   C4        1.0  0.7467012321445824  0.3839895021430832  0.420609355632335  1.0000
  C   C5        1.0  0.25370945046639487  0.41229418938953594  0.4564772518721403  1.0000
  C   C6        1.0  0.7462905489464577  0.5877058105147374  0.5435227479953909  1.0000
  C   C7        1.0  0.2753896466026294  0.47146646698526906  0.3883446465822979  1.0000
  C   C8        1.0  0.7246103530193573  0.5285335332625802  0.6116553540029641  1.0000
  C   C9        1.0  0.27719452886945933  0.6749794913021817  0.5112639508958846  1.0000
  C   C10       1.0  0.7228054707865387  0.32502050950843814  0.48873604897228146  1.0000
  C   C11       1.0  0.28719991795520117  0.6044606916000381  0.41601839442541894  1.0000
  C   C12       1.0  0.7128000814576516  0.3955393083042353  0.5839816054421124  1.0000
  C   C13       1.0  0.22603512325564465  0.45444725528467  0.0970502320314129  1.0000
  C   C14       1.0  0.7739648761572079  0.5455527446196032  0.9029497678361182  1.0000
  C   C15       1.0  0.42308596376375013  0.4875790269814342  0.1148391470005461  1.0000
  C   C16       1.0  0.5769140356491026  0.5124209729228392  0.8851608528669852  1.0000
  C   C17       1.0  0.13405272016322267  0.324543590496075  0.05835137048620383  1.0000
  C   C18       1.0  0.86594727924963  0.6754564094081983  0.9416486293813274  1.0000
  C   C19       1.0  0.4270889684341563  0.26063018491251794  0.0567524016728149  1.0000
  C   C20       1.0  0.5729110323518972  0.7393698149941095  0.9432475981967146  1.0000
  C   C21       1.0  0.5234096288535413  0.389030647870009  0.09444394654061741  1.0000
  C   C22       1.0  0.47659037076844524  0.6109693523778401  0.9055560540446446  1.0000
  C   C23       1.0  0.16168883714497911  0.023392356586871207  0.2802071054562189  1.0000
  C   C24       1.0  0.8383111636410743  0.9766076433197562  0.7197928944133105  1.0000
  C   C25       1.0  0.4202644074064728  0.9362407030120075  0.3242856758714246  1.0000
  C   C26       1.0  0.5797355920063797  0.06375929689226584  0.6757143239961066  1.0000
  C   C27       1.0  0.2650383970535141  0.9899172855429044  0.34779705418834206  1.0000
  C   C28       1.0  0.7349616023593385  0.01008271436136906  0.6522029456791891  1.0000
  C   C29       1.0  0.22146473813116355  0.006437667514945509  0.19155926783282895  1.0000
  C   C30       1.0  0.778535261281689  0.9935623323893279  0.8084407320347022  1.0000
  C   C31       1.0  0.3791718669026157  0.9550062694937896  0.17141563659672646  1.0000
  C   C32       1.0  0.6208281325102369  0.04499373041048386  0.8285843632708049  1.0000
  N   N1        1.0  0.23750455422999098  0.2333945454425011  0.04014137717031591  1.0000
  N   N2        1.0  0.7624954465560624  0.7666054544641263  0.9598586226992135  1.0000
  N   N3        1.0  0.4714243162225978  0.9206770478998714  0.23744156810366304  1.0000
  N   N4        1.0  0.5285756845634556  0.07932295200675593  0.7625584317658664  1.0000
  F   F1        1.0  0.24649826198857006  0.28304194621996426  0.4266092529102924  1.0000
  F   F2        1.0  0.7535017374242826  0.7169580536843091  0.5733907469572389  1.0000
  F   F3        1.0  0.2870210782907202  0.4013812026371763  0.2967867884007826  1.0000
  F   F4        1.0  0.7129789211221325  0.598618797267097  0.7032132114667486  1.0000
  F   F5        1.0  0.3079648571840328  0.6638981112736307  0.3513673210867758  1.0000
  F   F6        1.0  0.6920351422288199  0.33610188863064266  0.6486326787807554  1.0000
  F   F7        1.0  0.2917682742515281  0.8045009467517834  0.535598965350031  1.0000
  F   F8        1.0  0.7082317253704585  0.19549905349606567  0.46440103523523085  1.0000
  Cl  Cl1       1.0  0.09461467170750683  0.5712893805841973  0.12471872796222826  1.0000
  Cl  Cl2       1.0  0.9053853292876803  0.42871061966600593  0.8752812726250319  1.0000
  Cl  Cl3       1.0  0.19971625837893012  0.012708972957027394  0.4584137138900737  1.0000
  Cl  Cl4       1.0  0.8002837424071233  0.9872910269495999  0.5415862859794557  1.0000
  Br  Br1       1.0  0.2064185800035433  0.9262260416410878  0.9326833541931213  1.0000
  Br  Br2       1.0  0.7935814207825101  0.07377395826553979  0.06731664567640808  1.0000
  Br  Br3       1.0  0.8021773365367453  0.7699646532425175  0.2001522286334439  1.0000
  Br  Br4       1.0  0.1978226628761072  0.23003534666175582  0.7998477712340872  1.0000
  I   I1        1.0  0.21345828106039588  0.3790914645079094  0.6480585707532746  1.0000
  I   I2        1.0  0.7865417183524568  0.6209085353963639  0.35194142911425685  1.0000
  I   I3        1.0  0.23449891681608764  0.737239536024322  0.7204211968799665  1.0000
  I   I4        1.0  0.765501082805899  0.2627604642235272  0.27957880370529536  1.0000
