data_image0
_chemical_formula_structural       H72C80N8O40Cl16
_chemical_formula_sum              "H72 C80 N8 O40 Cl16"
_cell_length_a       7.679741857164502
_cell_length_b       19.35440774751057
_cell_length_c       15.166657391286172
_cell_angle_alpha    90.0
_cell_angle_beta     94.611057634302
_cell_angle_gamma    90.0

_space_group_name_H-M_alt    "P 1"
_space_group_IT_number       1

loop_
  _space_group_symop_operation_xyz
  'x, y, z'

loop_
  _atom_site_type_symbol
  _atom_site_label
  _atom_site_symmetry_multiplicity
  _atom_site_fract_x
  _atom_site_fract_y
  _atom_site_fract_z
  _atom_site_occupancy
  H   H1        1.0  0.3312972568452202  0.31865888434603634  0.2686009410023404  1.0000
  H   H2        1.0  0.6687027443375018  0.8186588846686871  0.23139905902616253  1.0000
  H   H3        1.0  0.6687027431121239  0.6813411152659089  0.7313990588085935  1.0000
  H   H4        1.0  0.3312972556198424  0.1813411154599363  0.7686009407847715  1.0000
  H   H5        1.0  0.5411843505329702  0.3038132660378782  0.3197495178973009  1.0000
  H   H6        1.0  0.4588156493474345  0.8038132658438508  0.1802504821299903  1.0000
  H   H7        1.0  0.458815649424374  0.6961867340907452  0.680250481913633  1.0000
  H   H8        1.0  0.5411843507125438  0.19618673376809442  0.8197495183424246  1.0000
  H   H9        1.0  0.6448162795663775  0.4139357997679089  0.2792008221341565  1.0000
  H   H10       1.0  0.3551837203140271  0.9139358000905597  0.2207991778931347  1.0000
  H   H11       1.0  0.3551837203909666  0.5860642003607145  0.7207991776767774  1.0000
  H   H12       1.0  0.6448162796433171  0.08606420003806373  0.7792008219177993  1.0000
  H   H13       1.0  0.46956051423679057  0.41324014634489303  0.19667231774220137  1.0000
  H   H14       1.0  0.5304394856436141  0.9132401461508657  0.30332768228508983  1.0000
  H   H15       1.0  0.5304394857205537  0.5867598537837304  0.8033276820687326  1.0000
  H   H16       1.0  0.46956051441636415  0.08675985397775772  0.696672318187325  1.0000
  H   H17       1.0  0.5029529440489938  0.5118587599909502  0.3362872338748315  1.0000
  H   H18       1.0  0.4970470558314109  0.01185875966829941  0.16371276615245972  1.0000
  H   H19       1.0  0.4970470559083504  0.48814124013767324  0.6637127659361025  1.0000
  H   H20       1.0  0.5029529442285674  0.9881412399436458  0.8362872343199551  1.0000
  H   H21       1.0  0.3002572202363842  0.4900835207018943  0.27887199566049276  1.0000
  H   H22       1.0  0.6997427796440204  0.990083521024545  0.2211280043667985  1.0000
  H   H23       1.0  0.6997427797209599  0.5099164789100509  0.7211280041504412  1.0000
  H   H24       1.0  0.30025722041595776  0.009916479104078313  0.7788719961056163  1.0000
  H   H25       1.0  0.9614109059827091  0.5049798117050165  0.6757360447401929  1.0000
  H   H26       1.0  0.038589094051574374  0.0049798118990438695  0.8242639548543836  1.0000
  H   H27       1.0  0.038589093974634926  0.49502018842360695  0.32426395507074096  1.0000
  H   H28       1.0  0.9614109059057698  0.9950201882295795  0.1757360449565502  1.0000
  H   H29       1.0  0.16722630355291632  0.49710392823761324  0.7339291353266013  1.0000
  H   H30       1.0  0.8327736965840014  0.997103928560264  0.7660708649294562  1.0000
  H   H31       1.0  0.8327736965070619  0.502896071374332  0.26607086514581346  1.0000
  H   H32       1.0  0.16722630337334274  0.0028960715683593865  0.23392913488147773  1.0000
  H   H33       1.0  0.04648237224937282  0.4006276322765461  0.8072708213858867  1.0000
  H   H34       1.0  0.9535176277849107  0.900627632599197  0.6927291782086898  1.0000
  H   H35       1.0  0.9535176277079712  0.5993723673353991  0.1927291784250472  1.0000
  H   H36       1.0  0.046482372172433374  0.09937236752942649  0.30727082160224395  1.0000
  H   H37       1.0  0.8696076671952905  0.3950396953367598  0.7261736223906458  1.0000
  H   H38       1.0  0.13039233294162714  0.8950396956594106  0.7738263778654119  1.0000
  H   H39       1.0  0.13039233276205356  0.6049603047918636  0.2738263774202882  1.0000
  H   H40       1.0  0.869607667118351  0.10496030446921277  0.226173622607003  1.0000
  H   H41       1.0  0.21837091845181741  0.32280823477037723  0.7287018901484581  1.0000
  H   H42       1.0  0.7816290816851003  0.8228082345763499  0.7712981101075995  1.0000
  H   H43       1.0  0.7816290816081608  0.6771917653582462  0.27129811032395673  1.0000
  H   H44       1.0  0.21837091827224384  0.1771917650355954  0.22870188970333444  1.0000
  H   H45       1.0  0.018494564658186326  0.2991782572496843  0.6699083950385581  1.0000
  H   H46       1.0  0.9815054340737799  0.7991782570556569  0.8300916045548067  1.0000
  H   H47       1.0  0.9815054352991578  0.7008217428789391  0.3300916047723757  1.0000
  H   H48       1.0  0.018494565883564167  0.2008217430729665  0.16990839525612716  1.0000
  H   H49       1.0  0.31035920252485005  0.46012974285640235  0.4490027296483141  1.0000
  H   H50       1.0  0.6896407973555546  0.960129742662375  0.05099727037897704  1.0000
  H   H51       1.0  0.6896407974324941  0.539870257272221  0.5509972701626198  1.0000
  H   H52       1.0  0.31035920260178956  0.03987025746624844  0.9490027294319568  1.0000
  H   H53       1.0  0.21868565945216675  0.350740874562444  0.559927676434503  1.0000
  H   H54       1.0  0.7813143406847509  0.8507408748850949  0.9400723238215546  1.0000
  H   H55       1.0  0.7813143406078115  0.6492591255661794  0.4400723240379118  1.0000
  H   H56       1.0  0.2186856592725932  0.14925912524352858  0.059927675989379384  1.0000
  H   H57       1.0  0.3477089127508722  0.2588696753402045  0.4424708389891399  1.0000
  H   H58       1.0  0.6522910871295324  0.7588696756628553  0.057529161038151255  1.0000
  H   H59       1.0  0.652291087309106  0.7411303242717407  0.5575291614832749  1.0000
  H   H60       1.0  0.34770891282781163  0.24113032446576813  0.9424708387727827  1.0000
  H   H61       1.0  0.17356799975584605  0.9388660581637918  0.5578261347551053  1.0000
  H   H62       1.0  0.8264320003810717  0.4388660583578191  0.9421738655009523  1.0000
  H   H63       1.0  0.8264320002014981  0.06113394144815351  0.4421738650558286  1.0000
  H   H64       1.0  0.1735679996789066  0.5611339417708043  0.05782613497146255  1.0000
  H   H65       1.0  0.1643218436310148  0.5538726418212837  0.5596277773375316  1.0000
  H   H66       1.0  0.835678156505903  0.05387264201531106  0.9403722229185262  1.0000
  H   H67       1.0  0.8356781564289635  0.44612735779066154  0.4403722231348834  1.0000
  H   H68       1.0  0.16432184345144119  0.9461273581133123  0.05962777689240773  1.0000
  H   H69       1.0  0.3124805863034942  0.8726565080335469  0.43567980247369936  1.0000
  H   H70       1.0  0.6875194135769104  0.3726565077108961  0.06432019755359188  1.0000
  H   H71       1.0  0.6875194136538499  0.1273434920950765  0.5643201973372346  1.0000
  H   H72       1.0  0.3124805863804337  0.6273434919010491  0.935679802257342  1.0000
  C   C1        1.0  0.2911561496467821  0.02716532465673749  0.47115599234798156  1.0000
  C   C2        1.0  0.7088438502336225  0.5271653249793883  0.028844007679309634  1.0000
  C   C3        1.0  0.7088438503105621  0.9728346749552077  0.5288440074629523  1.0000
  C   C4        1.0  0.29115614972372156  0.47283467514923516  0.9711559921316243  1.0000
  C   C5        1.0  0.3521755107739262  0.08683410941449074  0.42701389042669097  1.0000
  C   C6        1.0  0.6478244891064784  0.5868341092204633  0.0729861096006002  1.0000
  C   C7        1.0  0.6478244891834178  0.9131658907141328  0.572986109384243  1.0000
  C   C8        1.0  0.3521755108508658  0.4131658903914819  0.9270138902103338  1.0000
  C   C9        1.0  0.3218603598560453  0.152770222089607  0.45672759297465887  1.0000
  C   C10       1.0  0.6781396400243594  0.6527702218955796  0.04327240705263231  1.0000
  C   C11       1.0  0.6781396401012989  0.8472297780390164  0.5432724068362752  1.0000
  C   C12       1.0  0.32186036003561885  0.34722977771636565  0.9567275934197826  1.0000
  C   C13       1.0  0.21840863358266743  0.1632025185790705  0.5373154527056289  1.0000
  C   C14       1.0  0.7815913665542503  0.6632025183850431  0.9626845475504288  1.0000
  C   C15       1.0  0.7815913664773109  0.836797481549553  0.462684547766786  1.0000
  C   C16       1.0  0.21840863340309385  0.3367974812269021  0.0373154522605051  1.0000
  C   C17       1.0  0.15692667577835498  0.10230950261212164  0.5816478518881487  1.0000
  C   C18       1.0  0.8430733242559286  0.6023095029347724  0.918352147706428  1.0000
  C   C19       1.0  0.8430733241789892  0.8976904969998236  0.4183521479227852  1.0000
  C   C20       1.0  0.15692667570141552  0.39769049719385097  0.08164785210450595  1.0000
  C   C21       1.0  0.1890990568066672  0.03765896272872257  0.5508107543067459  1.0000
  C   C22       1.0  0.8109009433302504  0.5376589630513734  0.9491892459493116  1.0000
  C   C23       1.0  0.8109009432533111  0.9623410368832227  0.4491892461656689  1.0000
  C   C24       1.0  0.18909905662709364  0.46234103707725005  0.05081075386162229  1.0000
  C   C25       1.0  0.19880766997102037  0.7847002707666659  0.5236809870123803  1.0000
  C   C26       1.0  0.8011923301658974  0.2847002709606933  0.9763190132436773  1.0000
  C   C27       1.0  0.8011923300889578  0.21529972936195754  0.47631901346003463  1.0000
  C   C28       1.0  0.1988076697914468  0.7152997291679302  0.023680986567256597  1.0000
  C   C29       1.0  0.14431780210421916  0.7251051136816676  0.5705568460617637  1.0000
  C   C30       1.0  0.8556821979300644  0.2251051133590168  0.9294431535328128  1.0000
  C   C31       1.0  0.855682197853125  0.2748948864469558  0.4294431537491701  1.0000
  C   C32       1.0  0.1443178020272797  0.7748948862529283  0.0705568462781211  1.0000
  C   C33       1.0  0.1758303012410873  0.6592205184703254  0.5412266031710375  1.0000
  C   C34       1.0  0.8241696987931965  0.15922051866435274  0.9587733964235392  1.0000
  C   C35       1.0  0.8241696987162569  0.340779481658298  0.4587733966398964  1.0000
  C   C36       1.0  0.17583030116414783  0.8407794814642706  0.04122660338739479  1.0000
  C   C37       1.0  0.2698564443603016  0.6486580614493249  0.4575705327929558  1.0000
  C   C38       1.0  0.7301435568224204  0.14865806112667404  0.04242946723554711  1.0000
  C   C39       1.0  0.7301435556996767  0.3513419386792986  0.542429467679459  1.0000
  C   C40       1.0  0.26985644443724105  0.8513419384852712  0.9575705325765986  1.0000
  C   C41       1.0  0.32648313943685225  0.709350298862329  0.4111920535155906  1.0000
  C   C42       1.0  0.6735168604435524  0.20935029905635644  0.0888079465117005  1.0000
  C   C43       1.0  0.6735168605204919  0.29064970074961616  0.5888079462953433  1.0000
  C   C44       1.0  0.32648313961642583  0.790649701072267  0.9111920539607143  1.0000
  C   C45       1.0  0.2970473291207151  0.774037343091881  0.4427225891374596  1.0000
  C   C46       1.0  0.7029526707596897  0.27403734328590845  0.05727741088983162  1.0000
  C   C47       1.0  0.7029526709392632  0.22596265703674237  0.5572774113349552  1.0000
  C   C48       1.0  0.2970473291976545  0.725962656842715  0.9427225889211023  1.0000
  C   C49       1.0  0.37239053113387366  0.3664740710504206  0.3947548652640689  1.0000
  C   C50       1.0  0.627609468746531  0.8664740713730713  0.1052451347632223  1.0000
  C   C51       1.0  0.6276094689261047  0.6335259285615247  0.605245135208346  1.0000
  C   C52       1.0  0.37239053121081317  0.133525928755552  0.8947548650477116  1.0000
  C   C53       1.0  0.4395483780187911  0.34326958833728954  0.3088499060906376  1.0000
  C   C54       1.0  0.5604516218616136  0.8432695881432621  0.19115009393665355  1.0000
  C   C55       1.0  0.560451621938553  0.6567304117913338  0.6911500937202963  1.0000
  C   C56       1.0  0.4395483781983648  0.15673041198536128  0.8088499065357614  1.0000
  C   C57       1.0  0.5024649677569324  0.4104216369535625  0.26793928442841386  1.0000
  C   C58       1.0  0.4975350334257897  0.910421636759535  0.23206071560008906  1.0000
  C   C59       1.0  0.4975350322004118  0.589578363175061  0.73206071538252  1.0000
  C   C60       1.0  0.5024649665315545  0.08957836336908832  0.7679392842108449  1.0000
  C   C61       1.0  0.41505327206167797  0.4688157844130923  0.3176399286384438  1.0000
  C   C62       1.0  0.5849467278187267  0.968815784219065  0.18236007138884738  1.0000
  C   C63       1.0  0.5849467279983003  0.5311842157155311  0.6823600718339711  1.0000
  C   C64       1.0  0.41505327213861737  0.031184215909558426  0.8176399284220865  1.0000
  C   C65       1.0  0.14701282773150498  0.44482039503933407  0.6099082782444256  1.0000
  C   C66       1.0  0.8529871724054127  0.9448203948453068  0.890091722011632  1.0000
  C   C67       1.0  0.8529871722258392  0.5551796050892893  0.39009172156650823  1.0000
  C   C68       1.0  0.14701282765456555  0.0551796052833167  0.10990827846078295  1.0000
  C   C69       1.0  0.06785074186680035  0.46842290749847953  0.6925316633789861  1.0000
  C   C70       1.0  0.9321492581674833  0.9684229073044522  0.8074683362155907  1.0000
  C   C71       1.0  0.9321492580905438  0.5315770926301439  0.30746833643194793  1.0000
  C   C72       1.0  0.06785074178986086  0.031577092824171225  0.19253166359534327  1.0000
  C   C73       1.0  0.011443193330084082  0.401321967136869  0.7360866507891106  1.0000
  C   C74       1.0  0.9885568067041995  0.9013219669428417  0.7639133488054661  1.0000
  C   C75       1.0  0.9885568066272601  0.5986780329917544  0.2639133490218233  1.0000
  C   C76       1.0  0.01144319325314463  0.09867803318578178  0.23608665100546786  1.0000
  C   C77       1.0  0.10405164247484287  0.343013128410189  0.6885276630934645  1.0000
  C   C78       1.0  0.8959483576620748  0.8430131282161617  0.8114723371625931  1.0000
  C   C79       1.0  0.8959483575851354  0.6569868717184344  0.31147233737895047  1.0000
  C   C80       1.0  0.1040516422952693  0.15698687139578363  0.18852766264834075  1.0000
  N   N1        1.0  0.36123681202353036  0.4348014731208919  0.3969597845748967  1.0000
  N   N2        1.0  0.6387631878568742  0.9348014729268646  0.10304021545239449  1.0000
  N   N3        1.0  0.6387631880364479  0.5651985270077315  0.6030402158975182  1.0000
  N   N4        1.0  0.3612368121004699  0.06519852668508068  0.8969597843585395  1.0000
  N   N5        1.0  0.16064398084394924  0.37646061998136693  0.6093687653145914  1.0000
  N   N6        1.0  0.8393560191903343  0.8764606197873395  0.8906312342799854  1.0000
  N   N7        1.0  0.839356019113395  0.6235393801472565  0.3906312344963425  1.0000
  N   N8        1.0  0.1606439807670098  0.12353938034128391  0.10936876553094864  1.0000
  O   O1        1.0  0.3176393830677873  0.9665228264298653  0.4479710450153634  1.0000
  O   O2        1.0  0.6823606168126174  0.46652282610721457  0.05202895501192781  1.0000
  O   O3        1.0  0.6823606168895568  0.03347717369875806  0.5520289547955706  1.0000
  O   O4        1.0  0.31763938324736085  0.5334771735047307  0.947971045460487  1.0000
  O   O5        1.0  0.38056330320426524  0.20692608899464401  0.41809520346912105  1.0000
  O   O6        1.0  0.6194366966761394  0.7069260893172947  0.08190479655817016  1.0000
  O   O7        1.0  0.6194366968557131  0.7930739106173013  0.5819047970032938  1.0000
  O   O8        1.0  0.38056330328120463  0.29307391081132855  0.9180952032527638  1.0000
  O   O9        1.0  0.19035944627340357  0.22273858421498288  0.5616119891906334  1.0000
  O   O10       1.0  0.8096405537608801  0.7227385840209555  0.9383880104039434  1.0000
  O   O11       1.0  0.8096405536839406  0.7772614159136405  0.43838801062030064  1.0000
  O   O12       1.0  0.1903594461964641  0.27726141559098977  0.061611989406990524  1.0000
  O   O13       1.0  0.131946272601993  0.9809412226753353  0.5880365415626837  1.0000
  O   O14       1.0  0.8680537274322906  0.4809412223526845  0.9119634580318929  1.0000
  O   O15       1.0  0.8680537273553511  0.019058777453288153  0.4119634582482502  1.0000
  O   O16       1.0  0.1319462725250535  0.5190587772592608  0.08803654177904098  1.0000
  O   O17       1.0  0.17000551068923198  0.8453688427693938  0.5458222692765056  1.0000
  O   O18       1.0  0.8299944894476857  0.34536884296342113  0.954177730979552  1.0000
  O   O19       1.0  0.8299944893707463  0.15463115735922964  0.45417773119590926  1.0000
  O   O20       1.0  0.1700055105096584  0.6546311571652023  0.045822268831381935  1.0000
  O   O21       1.0  0.1275033443793223  0.6046983081414803  0.5832606619749383  1.0000
  O   O22       1.0  0.8724966557575955  0.10469830833550765  0.9167393382811192  1.0000
  O   O23       1.0  0.8724966555780218  0.39530169198714316  0.41673933783599565  1.0000
  O   O24       1.0  0.1275033443023828  0.8953016917931157  0.08326066219129553  1.0000
  O   O25       1.0  0.2944269495338014  0.5889330641732557  0.4327575139131206  1.0000
  O   O26       1.0  0.7055730516489205  0.08893306436728309  0.06724248611538235  1.0000
  O   O27       1.0  0.7055730505261769  0.41106693543868955  0.5672424865592944  1.0000
  O   O28       1.0  0.29442694830842353  0.9110669357613403  0.9327575136955516  1.0000
  O   O29       1.0  0.35263159442662106  0.8307042808927068  0.40478697486302223  1.0000
  O   O30       1.0  0.6473684054537836  0.3307042810867341  0.09521302516426895  1.0000
  O   O31       1.0  0.6473684055307231  0.1692957192359167  0.5952130249479117  1.0000
  O   O32       1.0  0.35263159460619464  0.6692957190418893  0.9047869753081459  1.0000
  O   O33       1.0  0.3306453339488852  0.327396913026958  0.4571476347680021  1.0000
  O   O34       1.0  0.6693546659315196  0.8273969128329307  0.042852365259289135  1.0000
  O   O35       1.0  0.6693546661110931  0.6726030871016654  0.5428523657044128  1.0000
  O   O36       1.0  0.33064533402582463  0.1726030872956928  0.9571476345516448  1.0000
  O   O37       1.0  0.1971938219041329  0.48389808730802575  0.5494834674069736  1.0000
  O   O38       1.0  0.8028061782327848  0.9838980871139984  0.950516532849084  1.0000
  O   O39       1.0  0.8028061780532112  0.5161019128205977  0.45051653240396033  1.0000
  O   O40       1.0  0.19719382182719344  0.01610191249794686  0.0494834676233308  1.0000
  Cl  Cl1       1.0  0.46851774951267194  0.07444573808699093  0.3363922202839397  1.0000
  Cl  Cl2       1.0  0.5314822503677328  0.5744457384096417  0.16360777974335144  1.0000
  Cl  Cl3       1.0  0.5314822504446722  0.9255542620416325  0.6636077795269942  1.0000
  Cl  Cl4       1.0  0.46851774969224547  0.42555426171898164  0.8363922207290633  1.0000
  Cl  Cl5       1.0  0.040880249432587286  0.11498749737181976  0.6722510833678053  1.0000
  Cl  Cl6       1.0  0.959119749402013  0.6149874976944706  0.8277489168870406  1.0000
  Cl  Cl7       1.0  0.9591197505247568  0.8850125022401255  0.32774891644312865  1.0000
  Cl  Cl8       1.0  0.040880250657965134  0.38501250243415286  0.17225108358537425  1.0000
  Cl  Cl9       1.0  0.0401764070563265  0.73774665576303  0.6649432174697886  1.0000
  Cl  Cl10      1.0  0.9598235930805912  0.23774665595705732  0.8350567827862689  1.0000
  Cl  Cl11      1.0  0.9598235929010177  0.26225334384891535  0.3350567823411454  1.0000
  Cl  Cl12      1.0  0.040176406979387055  0.7622533441715661  0.16494321768614584  1.0000
  Cl  Cl13      1.0  0.43294968652775356  0.6962334076966641  0.31780748264228803  1.0000
  Cl  Cl14      1.0  0.5670503133526512  0.19623340737401326  0.18219251738500317  1.0000
  Cl  Cl15      1.0  0.5670503134295906  0.30376659243195936  0.6821925171686459  1.0000
  Cl  Cl16      1.0  0.4329496867073271  0.803766592237932  0.8178074830874117  1.0000
