data_image0
_chemical_formula_structural       H40C72N8O4F16I8
_chemical_formula_sum              "H40 C72 N8 O4 F16 I8"
_cell_length_a       7.029908880876662
_cell_length_b       15.008769808510193
_cell_length_c       19.358819258703953
_cell_angle_alpha    110.84241775400291
_cell_angle_beta     91.98853902548845
_cell_angle_gamma    101.26018823978485

_space_group_name_H-M_alt    "P 1"
_space_group_IT_number       1

loop_
  _space_group_symop_operation_xyz
  'x, y, z'

loop_
  _atom_site_type_symbol
  _atom_site_label
  _atom_site_symmetry_multiplicity
  _atom_site_fract_x
  _atom_site_fract_y
  _atom_site_fract_z
  _atom_site_occupancy
  H   H1        1.0  0.0023959048535476353  0.08660247282568584  0.2475644274200423  1.0000
  H   H2        1.0  0.9976040954158512  0.9133975274364657  0.7524355726432439  1.0000
  H   H3        1.0  0.9913401115396554  0.7724893669464367  0.12317662766913501  1.0000
  H   H4        1.0  0.008659888729743548  0.227510633315715  0.8768233723941512  1.0000
  H   H5        1.0  0.8686540154635325  0.7416798894615305  0.9923639864522603  1.0000
  H   H6        1.0  0.13134598310398776  0.25832011011562606  0.007636013605888095  1.0000
  H   H7        1.0  0.7857224325505664  0.8772693620962424  0.9609271863608584  1.0000
  H   H8        1.0  0.21427756771883233  0.12273063816590923  0.03907281370242784  1.0000
  H   H9        1.0  0.8255953167703266  0.04311656295002073  0.057433105522668  1.0000
  H   H10       1.0  0.17440468322182878  0.9568834366316943  0.9425668945383658  1.0000
  H   H11       1.0  0.06902242235453802  0.8764470141581481  0.2498026909146876  1.0000
  H   H12       1.0  0.9309775779148608  0.12355298610400353  0.7501973091485985  1.0000
  H   H13       1.0  0.20608204929464927  0.9016855662767572  0.34947396887695914  1.0000
  H   H14       1.0  0.7939179509747495  0.09831443398539438  0.650526031186327  1.0000
  H   H15       1.0  0.3039679830548588  0.9456267719237353  0.48405952858834594  1.0000
  H   H16       1.0  0.69603201721454  0.054373228338416124  0.5159404714749402  1.0000
  H   H17       1.0  0.273823427235313  0.10884741198220416  0.5748183373369907  1.0000
  H   H18       1.0  0.7261765730340859  0.8911525882799475  0.42518166272629554  1.0000
  H   H19       1.0  0.052184155642045614  0.18261754808304304  0.40609794443218855  1.0000
  H   H20       1.0  0.9478158443501098  0.8173824514986722  0.5939020556288453  1.0000
  H   H21       1.0  0.5023893487849161  0.41861165318458055  0.7321973613477607  1.0000
  H   H22       1.0  0.4976106514844826  0.5813883470775709  0.26780263871552545  1.0000
  H   H23       1.0  0.4950152926726195  0.7246181501361596  0.8723304983322658  1.0000
  H   H24       1.0  0.5049847074393629  0.2753818498582754  0.12766950117469777  1.0000
  H   H25       1.0  0.39550334219230493  0.7175548342396598  0.9930297243820327  1.0000
  H   H26       1.0  0.6044966580770939  0.2824451660224917  0.006970275681253539  1.0000
  H   H27       1.0  0.3221893264199981  0.5572955630952421  0.008852279788396079  1.0000
  H   H28       1.0  0.6778106736919842  0.442704436899193  0.9911477197185675  1.0000
  H   H29       1.0  0.35272456160853966  0.4052252058478306  0.9070310228015257  1.0000
  H   H30       1.0  0.6472754383836157  0.5947747937338845  0.09296897725950806  1.0000
  H   H31       1.0  0.5547698781144881  0.6458081312936805  0.7468970105158275  1.0000
  H   H32       1.0  0.4452301204530322  0.354191868283476  0.253102989542321  1.0000
  H   H33       1.0  0.6856987713827902  0.6575663178624686  0.6596514887740891  1.0000
  H   H34       1.0  0.3143012288866085  0.34243368239968297  0.3403485112891971  1.0000
  H   H35       1.0  0.8031346315033655  0.6452075702266914  0.5372480424512792  1.0000
  H   H36       1.0  0.19686536848879  0.3547924293550239  0.46275195760975474  1.0000
  H   H37       1.0  0.80510633043958  0.4804375857787527  0.4433248755804825  1.0000
  H   H38       1.0  0.19489366955257545  0.5195624138029624  0.5566751244805512  1.0000
  H   H39       1.0  0.5839687906312674  0.34215665069941653  0.5839535564495979  1.0000
  H   H40       1.0  0.4160312096381314  0.657843349562735  0.4160464436136882  1.0000
  C   C1        1.0  0.01870999460637676  0.40263904705505105  0.7105236735615559  1.0000
  C   C2        1.0  0.9812900055056055  0.597360952939384  0.2894763259454077  1.0000
  C   C3        1.0  0.9657922882980812  0.3732361024198319  0.7690574841004416  1.0000
  C   C4        1.0  0.03420771169407423  0.6267638971618833  0.2309425159605923  1.0000
  C   C5        1.0  0.9292110568769967  0.4382804124549585  0.8363599222082345  1.0000
  C   C6        1.0  0.07078894339240209  0.561719587807193  0.16364007785505166  1.0000
  C   C7        1.0  0.946763313377602  0.536138401600549  0.8459861025208022  1.0000
  C   C8        1.0  0.05323668689179689  0.46386159866160254  0.15401389754248399  1.0000
  C   C9        1.0  0.0007529512742088115  0.5696431529831378  0.7893346016924967  1.0000
  C   C10       1.0  0.99924704899519  0.4303568472790137  0.2106653983707895  1.0000
  C   C11       1.0  0.03646343642705367  0.5013452386185909  0.7228456207117797  1.0000
  C   C12       1.0  0.963536563842345  0.49865476164356043  0.2771543793515064  1.0000
  C   C13       1.0  0.5612343533952862  0.10801956588435759  0.296791600994683  1.0000
  C   C14       1.0  0.43876564659686934  0.8919804336973576  0.7032083990663508  1.0000
  C   C15       1.0  0.4929459453232894  0.11089577795059609  0.22941436451831748  1.0000
  C   C16       1.0  0.5070540549461094  0.8891042223115555  0.7705856355449687  1.0000
  C   C17       1.0  0.4478689501862721  0.027864081679306235  0.16449887966374216  1.0000
  C   C18       1.0  0.5521310500831267  0.9721359185828454  0.835501120399544  1.0000
  C   C19       1.0  0.4665506776753935  0.9385441088449437  0.1673569087951324  1.0000
  C   C20       1.0  0.5334493225940053  0.061455891417208  0.8326430912681538  1.0000
  C   C21       1.0  0.530640723702167  0.9313047811437579  0.2338625489237758  1.0000
  C   C22       1.0  0.4693592765672319  0.06869521911839371  0.7661374511395104  1.0000
  C   C23       1.0  0.5787119829486683  0.017248906733466976  0.2969894847430565  1.0000
  C   C24       1.0  0.4212880173207303  0.9827510935286845  0.7030105153202297  1.0000
  C   C25       1.0  0.9783779796650245  0.9246864604275128  0.1639034170141636  1.0000
  C   C26       1.0  0.02162202032713101  0.07531353915420244  0.8360965830468703  1.0000
  C   C27       1.0  0.9548629271047683  0.830967894872157  0.10790445264388661  1.0000
  C   C28       1.0  0.04513707173999533  0.16903210538543592  0.8920955474165141  1.0000
  C   C29       1.0  0.8868664746157032  0.8137695059457956  0.0353638310713585  1.0000
  C   C30       1.0  0.1131335253764522  0.18623049363591967  0.9646361689896753  1.0000
  C   C31       1.0  0.8399848353697964  0.8906031072327328  0.017911173643058914  1.0000
  C   C32       1.0  0.16001516319772388  0.10939689234442379  0.9820888264150894  1.0000
  C   C33       1.0  0.8620275065323623  0.9839940140293151  0.07168266149551322  1.0000
  C   C34       1.0  0.13797249373703646  0.01600598623283655  0.9283173385677731  1.0000
  C   C35       1.0  0.9327072885068886  0.0022153984213197967  0.14502121550919364  1.0000
  C   C36       1.0  0.06729271148526686  0.9977846011603954  0.8549787845518402  1.0000
  C   C37       1.0  0.04191448498784483  0.9401610601395182  0.23926488879746102  1.0000
  C   C38       1.0  0.958085515281554  0.05983894012263339  0.7607351112658252  1.0000
  C   C39       1.0  0.12227327408265462  0.03984732053534506  0.3663637892333713  1.0000
  C   C40       1.0  0.8777267259095008  0.9601526790463702  0.6336362108276625  1.0000
  C   C41       1.0  0.19350292883637812  0.9723826549013997  0.389387867542257  1.0000
  C   C42       1.0  0.8064970714330207  0.027617345360751878  0.6106121325210291  1.0000
  C   C43       1.0  0.24946212431432227  0.9967380083052441  0.46457851358895436  1.0000
  C   C44       1.0  0.7505378759550765  0.0032619919569075707  0.5354214864743317  1.0000
  C   C45       1.0  0.23285730319246226  0.08734952092055481  0.5152675509993825  1.0000
  C   C46       1.0  0.7671426967996933  0.9126504786611604  0.4847324490616514  1.0000
  C   C47       1.0  0.11052404575595626  0.12914914403947017  0.4216704411790711  1.0000
  C   C48       1.0  0.8894759542361992  0.870850855542245  0.5783295588819628  1.0000
  C   C49       1.0  0.48014965056999204  0.569822466402703  0.821866930368901  1.0000
  C   C50       1.0  0.5198503496994068  0.4301775338594487  0.17813306969438514  1.0000
  C   C51       1.0  0.4639113578843597  0.655427463693068  0.8808747039633344  1.0000
  C   C52       1.0  0.5360886421077957  0.34457253588864706  0.11912529609769937  1.0000
  C   C53       1.0  0.408537395280572  0.6514701540548029  0.9478540969757531  1.0000
  C   C54       1.0  0.5914626049888269  0.3485298462073486  0.052145903087533065  1.0000
  C   C55       1.0  0.3682383992288711  0.5609671378459101  0.9566733474580148  1.0000
  C   C56       1.0  0.6317616010405276  0.43903286241624145  0.04332665260527132  1.0000
  C   C57       1.0  0.3846073946535956  0.475234611068963  0.8998397220643585  1.0000
  C   C58       1.0  0.6153926053385599  0.5247653885127521  0.10016027799667537  1.0000
  C   C59       1.0  0.44157234617269886  0.4786526327319292  0.8320531735536517  1.0000
  C   C60       1.0  0.5584276538194567  0.521347366849786  0.16794682650738207  1.0000
  C   C61       1.0  0.534384928267853  0.5744789086151372  0.7523112045791469  1.0000
  C   C62       1.0  0.4656150717243024  0.4255210909665778  0.24768879548188688  1.0000
  C   C63       1.0  0.6235032330014348  0.5000982094648952  0.631880995400742  1.0000
  C   C64       1.0  0.37649676726796394  0.4999017907972563  0.3681190046625441  1.0000
  C   C65       1.0  0.6874892323050462  0.5863631540959734  0.6180212753956141  1.0000
  C   C66       1.0  0.3125107679643525  0.4136368461661783  0.38197872466767213  1.0000
  C   C67       1.0  0.7539731985276142  0.5799860345494113  0.5500840299536791  1.0000
  C   C68       1.0  0.24602680146454117  0.4200139650323037  0.4499159701073547  1.0000
  C   C69       1.0  0.7557394636251439  0.48832918169319744  0.49743752248569906  1.0000
  C   C70       1.0  0.24426053664425496  0.5116708185689541  0.5025624775775871  1.0000
  C   C71       1.0  0.6319761331523182  0.4110042952802693  0.5755827122679421  1.0000
  C   C72       1.0  0.3680238671170807  0.5889957049818824  0.42441728779534404  1.0000
  N   N1        1.0  0.06236422808743538  0.025450900718857198  0.29273706664169713  1.0000
  N   N2        1.0  0.93763577190472  0.974549098862858  0.7072629334193367  1.0000
  N   N3        1.0  0.16332296590956255  0.15189890460880337  0.493898791562422  1.0000
  N   N4        1.0  0.8366770343598363  0.8481010956533481  0.5061012085008643  1.0000
  N   N5        1.0  0.5581017696556545  0.4965386639960141  0.6983402158254014  1.0000
  N   N6        1.0  0.4418982304563278  0.5034613359984208  0.30165978368156215  1.0000
  N   N7        1.0  0.6962004393737495  0.405700120711775  0.5104275185591121  1.0000
  N   N8        1.0  0.30379956089564913  0.5942998795503764  0.48957248150417404  1.0000
  O   O1        1.0  0.9557768597369396  0.09236294969157798  0.19803865116327155  1.0000
  O   O2        1.0  0.04422314037504269  0.9076370503028569  0.801961348343692  1.0000
  O   O3        1.0  0.45738753662381587  0.39660629829720095  0.7760810155420177  1.0000
  O   O4        1.0  0.5426124636455829  0.6033937019649506  0.22391898452126852  1.0000
  F   F1        1.0  0.954943801986827  0.2793997894613406  0.762757718965221  1.0000
  F   F2        1.0  0.045056198005328375  0.7206002101203746  0.2372422810958128  1.0000
  F   F3        1.0  0.8817329049687977  0.40737037713140695  0.8924619009431172  1.0000
  F   F4        1.0  0.11826709502335778  0.5926296224503081  0.10753809911791673  1.0000
  F   F5        1.0  0.912713737220874  0.5977666914972686  0.9123194032955856  1.0000
  F   F6        1.0  0.08728626277128143  0.4022333080844465  0.08768059676544819  1.0000
  F   F7        1.0  0.09424152073105901  0.5335948016064413  0.667875231948406  1.0000
  F   F8        1.0  0.9057584795383398  0.4664051986557101  0.3321247681148801  1.0000
  F   F9        1.0  0.46752295586249315  0.1962203280347247  0.22510366651795147  1.0000
  F   F10       1.0  0.5324770444069057  0.803779672227427  0.7748963335453347  1.0000
  F   F11       1.0  0.385627077043792  0.03344567506017979  0.09958104146647229  1.0000
  F   F12       1.0  0.6143729232256068  0.9665543252019718  0.9004189585968139  1.0000
  F   F13       1.0  0.4195348708484679  0.8585308235505401  0.10411217154322842  1.0000
  F   F14       1.0  0.5804651294209309  0.14146917671161138  0.8958878285200577  1.0000
  F   F15       1.0  0.6445721059812036  0.011578093343503126  0.36193841322122255  1.0000
  F   F16       1.0  0.3554278942881952  0.9884219069186485  0.6380615868420636  1.0000
  I   I1        1.0  0.07889874741257907  0.29889973556897337  0.6103615092166128  1.0000
  I   I2        1.0  0.9211012528568197  0.7011002646931782  0.38963849084667346  1.0000
  I   I3        1.0  0.024725397824603354  0.7163954048504949  0.8029171457716995  1.0000
  I   I4        1.0  0.9752746022873789  0.28360459514394004  0.1970828537352641  1.0000
  I   I5        1.0  0.6324228512785974  0.2377850292066462  0.39414061114132926  1.0000
  I   I6        1.0  0.3675771489908014  0.7622149710555054  0.605859388921957  1.0000
  I   I7        1.0  0.551769555034615  0.7949280326531085  0.23586768730495003  1.0000
  I   I8        1.0  0.4482304452347838  0.205071967609043  0.7641323127583362  1.0000
