data_image0
_chemical_formula_structural       H48C44N4O12
_chemical_formula_sum              "H48 C44 N4 O12"
_cell_length_a       10.262991338276128
_cell_length_b       10.219952096239451
_cell_length_c       10.112320200559742
_cell_angle_alpha    90.0
_cell_angle_beta     109.72852824679526
_cell_angle_gamma    90.0

_space_group_name_H-M_alt    "P 1"
_space_group_IT_number       1

loop_
  _space_group_symop_operation_xyz
  'x, y, z'

loop_
  _atom_site_type_symbol
  _atom_site_label
  _atom_site_symmetry_multiplicity
  _atom_site_fract_x
  _atom_site_fract_y
  _atom_site_fract_z
  _atom_site_occupancy
  H   H1        1.0  0.3765850001140741  0.9739946142861818  0.1445815920199642  1.0000
  H   H2        1.0  0.6234149998091569  0.4739946141022011  0.35541840738015795  1.0000
  H   H3        1.0  0.6234149996586023  0.026005385103301464  0.8554184080001128  1.0000
  H   H4        1.0  0.3765849999635194  0.5260053852872821  0.644581592639919  1.0000
  H   H5        1.0  0.24153387566973422  0.9068858672449539  0.1951764502992686  1.0000
  H   H6        1.0  0.7584661242486862  0.4068858670609732  0.3048235500880876  1.0000
  H   H7        1.0  0.7584661251380654  0.09311413312300751  0.8048235500800306  1.0000
  H   H8        1.0  0.24153387552399  0.5931141333069883  0.6951764499319893  1.0000
  H   H9        1.0  0.25989814565688796  0.07972960756830035  0.18687661952616438  1.0000
  H   H10       1.0  0.7401018542615325  0.5797296077522811  0.31312338086119185  1.0000
  H   H11       1.0  0.7401018541157883  0.920270391821183  0.8131233804939126  1.0000
  H   H12       1.0  0.2598981455111437  0.42027039163720215  0.6868766191588851  1.0000
  H   H13       1.0  0.5117206953267881  0.2967448821130897  0.6504555928619701  1.0000
  H   H14       1.0  0.4882793042953335  0.7967448822970704  0.8495444077780616  1.0000
  H   H15       1.0  0.4882793044458882  0.7032551172763936  0.34954440715810686  1.0000
  H   H16       1.0  0.5117206954773428  0.20325511807089103  0.15045559224201538  1.0000
  H   H17       1.0  0.5866049311628965  0.32157396326831067  0.5180207129261782  1.0000
  H   H18       1.0  0.413395069499159  0.8215739634522914  0.9819792870858415  1.0000
  H   H19       1.0  0.41339506861459024  0.6784260370996508  0.48197928610666474  1.0000
  H   H20       1.0  0.5866049313086407  0.17842603691567005  0.01802071329345751  1.0000
  H   H21       1.0  0.689260378898809  0.26040766971689383  0.6855042679226991  1.0000
  H   H22       1.0  0.31073962072812317  0.7604076689223964  0.8144957317300985  1.0000
  H   H23       1.0  0.31073962087386736  0.7395923306510676  0.3144957320973778  1.0000
  H   H24       1.0  0.6892603790445532  0.23959233046708686  0.18550426828997846  1.0000
  H   H25       1.0  0.40421856727779365  0.23634198450781146  0.33566159169001286  1.0000
  H   H26       1.0  0.5957814326454374  0.7363419846917921  0.16433840771010935  1.0000
  H   H27       1.0  0.5957814324996931  0.7636580148816718  0.66433840734283  1.0000
  H   H28       1.0  0.404218567127239  0.26365801469769107  0.8356615923099677  1.0000
  H   H29       1.0  0.0831021720211963  0.527631388016406  0.38220476807486226  1.0000
  H   H30       1.0  0.9168978278972243  0.027631387832425275  0.11779523231249402  1.0000
  H   H31       1.0  0.9168978277514801  0.4723686123515554  0.6177952319452148  1.0000
  H   H32       1.0  0.08310217187545213  0.972368611557058  0.882204767707583  1.0000
  H   H33       1.0  0.9497330073366804  0.7093679384923548  0.2439194857864377  1.0000
  H   H34       1.0  0.05026699258174005  0.2093679383083741  0.2560805146009185  1.0000
  H   H35       1.0  0.050266992435995875  0.29063206187560664  0.7560805142336392  1.0000
  H   H36       1.0  0.9497330082260594  0.7906320620595874  0.7439194857783805  1.0000
  H   H37       1.0  0.14653365253109454  0.6533556045196117  0.9325932033040046  1.0000
  H   H38       1.0  0.8534663481309609  0.15335560531410916  0.5674067967080152  1.0000
  H   H39       1.0  0.8534663472415817  0.34664439486987153  0.06740679671607229  1.0000
  H   H40       1.0  0.14653365267683874  0.8466443950538523  0.43259320367128395  1.0000
  H   H41       1.0  0.28042856289006673  0.4659212005261863  0.0727592601319601  1.0000
  H   H42       1.0  0.7195714370283538  0.9659212007101671  0.42724074025539616  1.0000
  H   H43       1.0  0.7195714368826096  0.5340787998417751  0.927240739888117  1.0000
  H   H44       1.0  0.28042856274432254  0.03407879965779438  0.5727592597646808  1.0000
  H   H45       1.0  0.88680747110916  0.817140794923383  0.03155634043003091  1.0000
  H   H46       1.0  0.1131925288140709  0.31714079473940227  0.4684436589700912  1.0000
  H   H47       1.0  0.11319252866351628  0.18285920544457843  0.9684436595900461  1.0000
  H   H48       1.0  0.8868074709586052  0.6828592056285592  0.5315563410499856  1.0000
  C   C1        1.0  0.4114364876597893  0.9909324275332414  0.3644118792519378  1.0000
  C   C2        1.0  0.5885635122586312  0.4909324273492608  0.13558812113541838  1.0000
  C   C3        1.0  0.5885635131480104  0.009067572834719944  0.6355881211273613  1.0000
  C   C4        1.0  0.4114364875140451  0.5090675730187006  0.8644118788846585  1.0000
  C   C5        1.0  0.5447521888955005  0.12176024488978626  0.5521037007475725  1.0000
  C   C6        1.0  0.45524781176655493  0.621760245073767  0.9478962992644474  1.0000
  C   C7        1.0  0.45524781088198624  0.8782397544996969  0.4478962982852704  1.0000
  C   C8        1.0  0.5447521890412447  0.37823975529419446  0.05210370111485177  1.0000
  C   C9        1.0  0.31631652277323136  0.987325542720781  0.21521672603516104  1.0000
  C   C10       1.0  0.6836834771451891  0.48732554253680027  0.2847832743521952  1.0000
  C   C11       1.0  0.683683476999445  0.01267445764718045  0.784783273984916  1.0000
  C   C12       1.0  0.31631652262748716  0.5126744578311612  0.7152167256678817  1.0000
  C   C13       1.0  0.5866422324149186  0.2573098362141664  0.6047048722784317  1.0000
  C   C14       1.0  0.4133577672120135  0.7573098354196689  0.895295127374366  1.0000
  C   C15       1.0  0.4133577673577577  0.7426901641537951  0.39529512774164516  1.0000
  C   C16       1.0  0.5866422325606627  0.2426901639698143  0.10470487264571106  1.0000
  C   C17       1.0  0.1910821206972545  0.4837607273931553  0.2365717880509631  1.0000
  C   C18       1.0  0.8089178802562893  0.9837607275771362  0.2634282126956153  1.0000
  C   C19       1.0  0.8089178801105451  0.5162392719963279  0.763428212328336  1.0000
  C   C20       1.0  0.1910821205515103  0.016239272790825366  0.7365717876836838  1.0000
  C   C21       1.0  0.09673818952208707  0.5532128552814238  0.283146791630406  1.0000
  C   C22       1.0  0.9032618103963334  0.05321285509744312  0.21685320875695022  1.0000
  C   C23       1.0  0.9032618102505892  0.44678714508653755  0.7168532083896708  1.0000
  C   C24       1.0  0.0967381893763429  0.9467871452705182  0.7831467912631267  1.0000
  C   C25       1.0  0.02162354731227032  0.6565522662742223  0.20552031331730555  1.0000
  C   C26       1.0  0.9783764536412733  0.15655226609024148  0.2944796874292729  1.0000
  C   C27       1.0  0.9783764534955294  0.34344773409373924  0.7944796870619936  1.0000
  C   C28       1.0  0.02162354716652615  0.8434477332992417  0.7055203129500263  1.0000
  C   C29       1.0  0.038766602063004904  0.6929462059421841  0.07801556809994435  1.0000
  C   C30       1.0  0.961233397860226  0.19294620575820345  0.4219844313001779  1.0000
  C   C31       1.0  0.9612333977096714  0.30705379344729905  0.9219844319201327  1.0000
  C   C32       1.0  0.038766601912450294  0.8070537936312798  0.5780155687198991  1.0000
  C   C33       1.0  0.13495767722235655  0.6251963433714215  0.0318829319530243  1.0000
  C   C34       1.0  0.865042322696064  0.12519634416591902  0.468117068434332  1.0000
  C   C35       1.0  0.8650423225503197  0.3748036560180617  0.9681170680670526  1.0000
  C   C36       1.0  0.13495767707661235  0.8748036562020425  0.5318829315857451  1.0000
  C   C37       1.0  0.20897336814016867  0.5213960662262531  0.10989137121573668  1.0000
  C   C38       1.0  0.7910266317830622  0.021396066042272444  0.3901086281843855  1.0000
  C   C39       1.0  0.7910266316325076  0.47860393414170826  0.8901086288043403  1.0000
  C   C40       1.0  0.20897336798961402  0.9786039343256889  0.6098913718356914  1.0000
  C   C41       1.0  0.26968038505280495  0.37483617084757076  0.32107552611243667  1.0000
  C   C42       1.0  0.7303196148656156  0.8748361710315515  0.17892447427491961  1.0000
  C   C43       1.0  0.7303196147198714  0.6251638295203907  0.6789244739076403  1.0000
  C   C44       1.0  0.2696803859421841  0.12516382933640996  0.8210755261043795  1.0000
  N   N1        1.0  0.45832237152412614  0.10877506954353083  0.41917113257690175  1.0000
  N   N2        1.0  0.5416776283942943  0.6087750697275116  0.08082886781045454  1.0000
  N   N3        1.0  0.5416776282485501  0.8912249308244306  0.5808288674431752  1.0000
  N   N4        1.0  0.4583223713783819  0.3912249306404499  0.9191711322096224  1.0000
  O   O1        1.0  0.3647744049139929  0.3216888092077972  0.27553858889576816  1.0000
  O   O2        1.0  0.635225595009238  0.821688809391778  0.2244614105043541  1.0000
  O   O3        1.0  0.6352255948634938  0.6783111911601643  0.7244614101370748  1.0000
  O   O4        1.0  0.36477440476343836  0.17831119097618353  0.775538589515723  1.0000
  O   O5        1.0  0.25107188348914167  0.33296791197799663  0.4298081587761106  1.0000
  O   O6        1.0  0.7489281164292788  0.8329679121619773  0.07019184161124564  1.0000
  O   O7        1.0  0.7489281162835346  0.6670320883899648  0.5701918412439664  1.0000
  O   O8        1.0  0.2510718833433975  0.16703208820598406  0.9298081584088312  1.0000
  O   O9        1.0  0.9659250777787649  0.7916418319589783  0.998330582775521  1.0000
  O   O10       1.0  0.03407492288329051  0.2916418317749976  0.5016694172364989  1.0000
  O   O11       1.0  0.03407492199391135  0.20835816840898316  0.001669417244555932  1.0000
  O   O12       1.0  0.9659250779293196  0.7083581676144857  0.49833058215556625  1.0000
