data_image0
_chemical_formula_structural       H52C60N8O20Br4
_chemical_formula_sum              "H52 C60 N8 O20 Br4"
_cell_length_a       15.120490905317183
_cell_length_b       6.789660795301395
_cell_length_c       16.262470986110348
_cell_angle_alpha    90.0
_cell_angle_beta     117.51771894199061
_cell_angle_gamma    90.0

_space_group_name_H-M_alt    "P 1"
_space_group_IT_number       1

loop_
  _space_group_symop_operation_xyz
  'x, y, z'

loop_
  _atom_site_type_symbol
  _atom_site_label
  _atom_site_symmetry_multiplicity
  _atom_site_fract_x
  _atom_site_fract_y
  _atom_site_fract_z
  _atom_site_occupancy
  H   H1        1.0  0.25327629151318937  0.9909020999481827  0.680844236872235  1.0000
  H   H2        1.0  0.24672370863484164  0.4909021010749985  0.8191557626719098  1.0000
  H   H3        1.0  0.7467237087644999  0.009097899271013279  0.3191557627523161  1.0000
  H   H4        1.0  0.7532762916428477  0.509097899617025  0.1808442369526414  1.0000
  H   H5        1.0  0.4889161880457442  0.17917828690969187  0.3005003418008761  1.0000
  H   H6        1.0  0.011083812265479593  0.6791782872557036  0.1994996583580761  1.0000
  H   H7        1.0  0.5110838119154635  0.8208217137823317  0.699499658517258  1.0000
  H   H8        1.0  0.9889161873509698  0.32082171343631993  0.8005003412667048  1.0000
  H   H9        1.0  0.36823874992448674  0.16605694216421474  0.1305286130281917  1.0000
  H   H10       1.0  0.13176125038673703  0.6660569425102264  0.3694713871307605  1.0000
  H   H11       1.0  0.6317612496919625  0.8339430570549811  0.8694713865965893  1.0000
  H   H12       1.0  0.8682387502357106  0.33394305818179704  0.6305286131871439  1.0000
  H   H13       1.0  0.18684242170303175  0.16866339048814968  0.07800387894183254  1.0000
  H   H14       1.0  0.31315757794695215  0.6686633908341615  0.42199612121734936  1.0000
  H   H15       1.0  0.813157578258176  0.8313366087310462  0.9219961213763016  1.0000
  H   H16       1.0  0.6868424216694974  0.3313366098578621  0.5780038784074316  1.0000
  H   H17       1.0  0.11917399132185169  0.1549732161477283  0.1919741113052516  1.0000
  H   H18       1.0  0.3808260079833738  0.65497321649374  0.3080258881605772  1.0000
  H   H19       1.0  0.8808260082945977  0.8450267830714675  0.8080258883195294  1.0000
  H   H20       1.0  0.6191739916330756  0.34502678272545584  0.6919741114642037  1.0000
  H   H21       1.0  0.44204506762012946  0.1976907507557477  0.6065679489539619  1.0000
  H   H22       1.0  0.05795493221141989  0.6976907511017596  0.8934320512837658  1.0000
  H   H23       1.0  0.5579549323410782  0.8023092484634481  0.39343205136417214  1.0000
  H   H24       1.0  0.9420450677497877  0.30230924959026406  0.10656794903436823  1.0000
  H   H25       1.0  0.30804168734815696  0.5910765531581835  0.6782525508386871  1.0000
  H   H26       1.0  0.19195831213863412  0.09107655428499944  0.8217474487056876  1.0000
  H   H27       1.0  0.6919583122682924  0.40892344606101233  0.3217474487860939  1.0000
  H   H28       1.0  0.8080416874778151  0.9089234464070242  0.1782525509190934  1.0000
  H   H29       1.0  0.2520219199837774  0.4489180699732877  0.521351362313881  1.0000
  H   H30       1.0  0.2479780798477721  0.9489180703192995  0.9786486379238467  1.0000
  H   H31       1.0  0.7479780799774303  0.5510819307187358  0.478648638004253  1.0000
  H   H32       1.0  0.7520219201134356  0.051081930372724044  0.021351362394287362  1.0000
  H   H33       1.0  0.37743206343462976  0.5320403432377429  0.5643176281807656  1.0000
  H   H34       1.0  0.12256793705815969  0.03204034289173104  0.9356823720567324  1.0000
  H   H35       1.0  0.6225679371878179  0.46795965598145306  0.4356823721371388  1.0000
  H   H36       1.0  0.8774320635642879  0.967959656327465  0.06431762826117182  1.0000
  H   H37       1.0  0.9592375127501233  0.7420971491663946  0.42429016812150083  1.0000
  H   H38       1.0  0.5407624873407426  0.24209714882038275  0.07570983227703958  1.0000
  H   H39       1.0  0.04076248721108442  0.25790285152562903  0.5757098321966333  1.0000
  H   H40       1.0  0.4592375132817049  0.7579028518716407  0.9242901680408646  1.0000
  H   H41       1.0  0.9419595519601333  0.8147839114184243  0.5225095823832516  1.0000
  H   H42       1.0  0.5580404479675402  0.31478391107241255  0.9774904174004817  1.0000
  H   H43       1.0  0.058040448317556205  0.18521608780077162  0.47749041724129965  1.0000
  H   H44       1.0  0.44195955199366765  0.6852160881467834  0.02250958291765248  1.0000
  H   H45       1.0  0.12506611206747906  0.752417066775311  0.5634675414672884  1.0000
  H   H46       1.0  0.37493388776407044  0.2524170679021267  0.9365324587704394  1.0000
  H   H47       1.0  0.8749338878937287  0.24758293244388505  0.43653245885084574  1.0000
  H   H48       1.0  0.6250661121971373  0.7475829327898967  0.06346754154769468  1.0000
  H   H49       1.0  0.07969442449384714  0.6002726782493235  0.626104427998275  1.0000
  H   H50       1.0  0.42030557499294385  0.10027267790331171  0.8738955715460995  1.0000
  H   H51       1.0  0.9203055751226022  0.39972732096987246  0.373895571626506  1.0000
  H   H52       1.0  0.5796944246235054  0.8997273213158842  0.12610442807868133  1.0000
  C   C1        1.0  0.2667763387209815  0.16098186683440655  0.3089329556358858  1.0000
  C   C2        1.0  0.23322366159024235  0.6609818671804183  0.19106704452306641  1.0000
  C   C3        1.0  0.733223661901466  0.8390181323847894  0.6910670446820185  1.0000
  C   C4        1.0  0.7667763383709654  0.3390181320387776  0.8089329557950677  1.0000
  C   C5        1.0  0.3700251764397529  0.17204621780345453  0.3391042521237204  1.0000
  C   C6        1.0  0.12997482387147094  0.6720462166766387  0.16089574803523177  1.0000
  C   C7        1.0  0.6299748231766965  0.827953782888569  0.6608957475010606  1.0000
  C   C8        1.0  0.8700251767509768  0.3279537825425572  0.8391042522826726  1.0000
  C   C9        1.0  0.4088467243210649  0.17074864929957626  0.27676365256296004  1.0000
  C   C10       1.0  0.09115327599015893  0.670748649645588  0.22323634759599212  1.0000
  C   C11       1.0  0.5911532756401428  0.8292513499196196  0.723236347755174  1.0000
  C   C12       1.0  0.9088467242875303  0.32925134957360785  0.7767636520285591  1.0000
  C   C13       1.0  0.3409215709746094  0.1649163343734162  0.18192101190020668  1.0000
  C   C14       1.0  0.15907842933661442  0.6649163332466004  0.3180789882587455  1.0000
  C   C15       1.0  0.6590784296478381  0.8350836663186073  0.8180789884176976  1.0000
  C   C16       1.0  0.8409215706245933  0.33508366597259553  0.6819210120593886  1.0000
  C   C17       1.0  0.23799316673568266  0.16253193690672638  0.15184663895958053  1.0000
  C   C18       1.0  0.2620068332307828  0.6625319357799105  0.34815336050601847  1.0000
  C   C19       1.0  0.7620068335420066  0.8374680637852971  0.8481533606649706  1.0000
  C   C20       1.0  0.7379931663856665  0.33746806343928537  0.6518466391187625  1.0000
  C   C21       1.0  0.19926534011271946  0.15785857973077466  0.21538099595635105  1.0000
  C   C22       1.0  0.3007346595372644  0.6578585800767864  0.28461900420283087  1.0000
  C   C23       1.0  0.8007346598484882  0.8421414194884213  0.784619004361783  1.0000
  C   C24       1.0  0.6992653404239432  0.3421414191424095  0.7153809961153031  1.0000
  C   C25       1.0  0.2502896128140671  0.16524889590602806  0.3921168641768035  1.0000
  C   C26       1.0  0.24971038649115843  0.6652488962520398  0.1078831352890253  1.0000
  C   C27       1.0  0.7497103868023822  0.8347511033131679  0.6078831354479775  1.0000
  C   C28       1.0  0.7502896131252909  0.33475110296715604  0.8921168643357557  1.0000
  C   C29       1.0  0.42113124400866875  0.19561584592254175  0.44153156269841304  1.0000
  C   C30       1.0  0.0788687563025551  0.6956158462685534  0.058468437460539084  1.0000
  C   C31       1.0  0.5788687556077806  0.8043841532966542  0.5584684369263679  1.0000
  C   C32       1.0  0.9211312443198926  0.30438415442347  0.9415315628573652  1.0000
  C   C33       1.0  0.36103629739700566  0.2149171032240389  0.5616026472661564  1.0000
  C   C34       1.0  0.13896370309578365  0.7149171035700507  0.9383973529713416  1.0000
  C   C35       1.0  0.6389637032254419  0.7850828974679847  0.43839735305174793  1.0000
  C   C36       1.0  0.8610362968654239  0.2850828971219729  0.061602647346792445  1.0000
  C   C37       1.0  0.31129285975836907  0.05115294717526205  0.5901537625791259  1.0000
  C   C38       1.0  0.18870714007318043  0.5511529475212738  0.9098462376586018  1.0000
  C   C39       1.0  0.6887071402028386  0.9488470535167615  0.4098462377390081  1.0000
  C   C40       1.0  0.8112928598880272  0.44884705317074974  0.09015376265953225  1.0000
  C   C41       1.0  0.2796198415155093  0.28642160906562253  0.6902440167057698  1.0000
  C   C42       1.0  0.2203801583160402  0.7864216079388067  0.809755983531958  1.0000
  C   C43       1.0  0.7203801584456985  0.713578391626401  0.3097559836123643  1.0000
  C   C44       1.0  0.7796198413004092  0.21357839128038922  0.19024401609282307  1.0000
  C   C45       1.0  0.33327059032966194  0.4470436022518947  0.6675766258157859  1.0000
  C   C46       1.0  0.16672940950188753  0.9470436025979065  0.8324233744219419  1.0000
  C   C47       1.0  0.6667294096315457  0.5529563969673013  0.3324233745023482  1.0000
  C   C48       1.0  0.833270590114562  0.05295639809411704  0.16757662520283906  1.0000
  C   C49       1.0  0.3295881645657199  0.4225665031728055  0.5737786770143752  1.0000
  C   C50       1.0  0.17041183526582945  0.9225665035188173  0.9262213232233524  1.0000
  C   C51       1.0  0.6704118353954878  0.577433497519218  0.4262213233037588  1.0000
  C   C52       1.0  0.8295881646953781  0.07743349717320627  0.0737786770947816  1.0000
  C   C53       1.0  0.9658819260734316  0.694870155113628  0.4921168317583098  1.0000
  C   C54       1.0  0.534118074333916  0.19487015476761635  0.007883167946647774  1.0000
  C   C55       1.0  0.03411807420425776  0.30512984557839545  0.5078831678662414  1.0000
  C   C56       1.0  0.4658819259437733  0.8051298459244072  0.9921168316779034  1.0000
  C   C57       1.0  0.07238586528950221  0.6347134989397802  0.5568319231598334  1.0000
  C   C58       1.0  0.4276141348585288  0.13471349859376855  0.9431680763843113  1.0000
  C   C59       1.0  0.927614134326947  0.36528650027941556  0.44316807646494744  1.0000
  C   C60       1.0  0.5723858654191605  0.8652865006254274  0.05683192324023984  1.0000
  N   N1        1.0  0.34517716449435265  0.1835527705393533  0.46817832792390535  1.0000
  N   N2        1.0  0.15482283481087294  0.6835527708853651  0.0318216715419235  1.0000
  N   N3        1.0  0.6548228351220968  0.8164472301526702  0.5318216717008757  1.0000
  N   N4        1.0  0.8451771648055765  0.31644722980665846  0.9681783280828574  1.0000
  N   N5        1.0  0.2755571468883114  0.10466116370522684  0.6515377716474295  1.0000
  N   N6        1.0  0.224442853604478  0.6046611640512386  0.8484622285900686  1.0000
  N   N7        1.0  0.7244428530728964  0.8953388369867967  0.34846222867070453  1.0000
  N   N8        1.0  0.7755571470179696  0.39533883664078495  0.15153777172783586  1.0000
  O   O1        1.0  0.17328388047145168  0.15801891027346587  0.3997303962912967  1.0000
  O   O2        1.0  0.3267161188337738  0.6580189091466501  0.10026960317453212  1.0000
  O   O3        1.0  0.8267161191449977  0.8419810904185576  0.6002696033334843  1.0000
  O   O4        1.0  0.6732838807826754  0.34198109007254596  0.8997303964502488  1.0000
  O   O5        1.0  0.50896618272962  0.22783266154776033  0.49517494093303394  1.0000
  O   O6        1.0  0.9910338176777276  0.727832661893772  0.0048250587719235434  1.0000
  O   O7        1.0  0.4910338178928277  0.7721673391442632  0.5048250593848703  1.0000
  O   O8        1.0  0.008966182599961724  0.27216733879825145  0.9951749408526277  1.0000
  O   O9        1.0  0.30642455013837366  0.8793377033108429  0.5650652034984971  1.0000
  O   O10       1.0  0.1935754503544157  0.37933770443765885  0.9349347967390009  1.0000
  O   O11       1.0  0.693575449822834  0.12066229590835295  0.434934796819637  1.0000
  O   O12       1.0  0.806424550268032  0.6206622962543646  0.06506520357890334  1.0000
  O   O13       1.0  0.24331032388658666  0.3069616027714214  0.7441864101575938  1.0000
  O   O14       1.0  0.2566896766062027  0.8069616031174333  0.7558135900799041  1.0000
  O   O15       1.0  0.7566896763911025  0.6930383964477744  0.2558135894669573  1.0000
  O   O16       1.0  0.743310323355005  0.19303839757459035  0.24418641023822996  1.0000
  O   O17       1.0  0.10115591530509008  0.46606115907731904  0.5214632667260723  1.0000
  O   O18       1.0  0.39884408418170103  0.9660611594233308  0.9785367328183023  1.0000
  O   O19       1.0  0.8988440843113592  0.5339388401418769  0.4785367328987087  1.0000
  O   O20       1.0  0.6011559154347483  0.03393884126869272  0.02146326680647864  1.0000
  Br  Br1       1.0  0.4734545404927964  0.4230799367750279  0.7675594896087399  1.0000
  Br  Br2       1.0  0.026545459655234666  0.9230799371210396  0.7324405099354051  1.0000
  Br  Br3       1.0  0.5265454591236529  0.5769200624441679  0.23244051001604113  1.0000
  Br  Br4       1.0  0.9734545406224546  0.07692006357098384  0.26755948968914617  1.0000
