data_image0
_chemical_formula_structural       H32B2C46O8Cl16
_chemical_formula_sum              "H32 B2 C46 O8 Cl16"
_cell_length_a       8.142754502131682
_cell_length_b       8.118745077329818
_cell_length_c       21.042912114809617
_cell_angle_alpha    82.24610751098278
_cell_angle_beta     80.89268322906837
_cell_angle_gamma    88.02397138025759

_space_group_name_H-M_alt    "P 1"
_space_group_IT_number       1

loop_
  _space_group_symop_operation_xyz
  'x, y, z'

loop_
  _atom_site_type_symbol
  _atom_site_label
  _atom_site_symmetry_multiplicity
  _atom_site_fract_x
  _atom_site_fract_y
  _atom_site_fract_z
  _atom_site_occupancy
  H   H1        1.0  0.10099231508057338  0.0833294598996075  0.02155071159507162  1.0000
  H   H2        1.0  0.899007684066823  0.916670539919171  0.9784492883658958  1.0000
  H   H3        1.0  0.6869158188953968  0.9719307782450137  0.05769261478662871  1.0000
  H   H4        1.0  0.31308418128669  0.028069221428016287  0.9423073856597194  1.0000
  H   H5        1.0  0.022155208008590093  0.21648912339106285  0.1723012006544504  1.0000
  H   H6        1.0  0.9778447923184997  0.7835108776688137  0.8276987993025121  1.0000
  H   H7        1.0  0.5367314150983475  0.15410535281154258  0.12239042761949342  1.0000
  H   H8        1.0  0.4632685852287422  0.8458946482483338  0.8776095723374693  1.0000
  H   H9        1.0  0.3618830533183299  0.8940009467762738  0.2271183621029362  1.0000
  H   H10       1.0  0.6381169458290665  0.10599905304250477  0.7728816378580312  1.0000
  H   H11       1.0  0.0374676226810605  0.6049554846856555  0.38068371651847244  1.0000
  H   H12       1.0  0.9625323776941807  0.3950445151405166  0.6193162834424089  1.0000
  H   H13       1.0  0.7582693774174255  0.4215732107420906  0.5072273732651487  1.0000
  H   H14       1.0  0.2417306227646612  0.5784267889309395  0.4927726271811994  1.0000
  H   H15       1.0  0.7183159195121775  0.9293926031409375  0.45507733906326986  1.0000
  H   H16       1.0  0.28168408086306357  0.07060739668523451  0.5449226608976114  1.0000
  H   H17       1.0  0.6537455914624066  0.6710449523958611  0.9801928920327259  1.0000
  H   H18       1.0  0.3462544076849896  0.3289550474229174  0.019807107928241596  1.0000
  H   H19       1.0  0.6285737208611987  0.5064979789542079  0.04595379812702689  1.0000
  H   H20       1.0  0.3714262795140424  0.49350202087196393  0.9540462018338544  1.0000
  H   H21       1.0  0.7617595842438015  0.6780947775285603  0.04628054681104034  1.0000
  H   H22       1.0  0.23824041613143945  0.3219052222976117  0.953719453149841  1.0000
  H   H23       1.0  0.22773541828289082  0.7491718400440734  0.158272282658052  1.0000
  H   H24       1.0  0.7722645820923504  0.25082815978209855  0.8417277173028292  1.0000
  H   H25       1.0  0.20370163265699734  0.8547550925835338  0.08060412353109181  1.0000
  H   H26       1.0  0.7962983677182439  0.1452449072426381  0.9193958764297895  1.0000
  H   H27       1.0  0.05611694983880868  0.6022631991242338  0.058222590183644694  1.0000
  H   H28       1.0  0.9438830504882812  0.397736801935643  0.9417774097733177  1.0000
  H   H29       1.0  0.9524245166407836  0.683624082474246  0.12857764647764974  1.0000
  H   H30       1.0  0.04757548373445733  0.31637591735192583  0.8714223534832314  1.0000
  H   H31       1.0  0.0785449411387131  0.5018125549456782  0.13700744411319246  1.0000
  H   H32       1.0  0.9214550592365282  0.49818744488049377  0.8629925558476886  1.0000
  B   B1        1.0  0.8821736514624333  0.10348499556623902  0.07785427336884607  1.0000
  B   B2        1.0  0.11782634768496303  0.8965150042525395  0.9221457265921212  1.0000
  C   C1        1.0  0.6383708278596643  0.31686098960686515  0.2534105250230344  1.0000
  C   C2        1.0  0.36162917251557675  0.6831390102193069  0.7465894749378468  1.0000
  C   C3        1.0  0.562267968250461  0.3793654802010539  0.31321558147000417  1.0000
  C   C4        1.0  0.43773203212478007  0.6206345196251182  0.686784418490877  1.0000
  C   C5        1.0  0.8135494221104379  0.2959483071197886  0.23750855587563702  1.0000
  C   C6        1.0  0.18645057703695844  0.7040516926989899  0.7624914440853304  1.0000
  C   C7        1.0  0.8871931961790395  0.22806118604213113  0.182668405658419  1.0000
  C   C8        1.0  0.11280680414805024  0.7719388150177456  0.8173315942985436  1.0000
  C   C9        1.0  0.7906338988089341  0.17631249500022508  0.1396047081516681  1.0000
  C   C10       1.0  0.20936610156630692  0.8236875048259468  0.8603952918092133  1.0000
  C   C11       1.0  0.6175314506219974  0.19633924218504778  0.1533861232607045  1.0000
  C   C12       1.0  0.3824685485253989  0.8036607576337307  0.8466138767002629  1.0000
  C   C13       1.0  0.5445195739423591  0.26597584102527505  0.20807987596956304  1.0000
  C   C14       1.0  0.45548042643288206  0.7340241588008969  0.7919201239913182  1.0000
  C   C15       1.0  0.4365741974650951  0.5106213547357517  0.31132842929628174  1.0000
  C   C16       1.0  0.563425802910146  0.48937864509042023  0.6886715706645994  1.0000
  C   C17       1.0  0.4584698354254696  0.6576337843293422  0.2658333385885889  1.0000
  C   C18       1.0  0.5415301649497716  0.3423662154968298  0.7341666613722924  1.0000
  C   C19       1.0  0.3368095111633607  0.781280551145781  0.26117971177840255  1.0000
  C   C20       1.0  0.6631904879840357  0.21871944867299759  0.7388202881825648  1.0000
  C   C21       1.0  0.1846675460014342  0.7602440866248223  0.3022811345495493  1.0000
  C   C22       1.0  0.8153324543256555  0.23975591443505423  0.6977188654074132  1.0000
  C   C23       1.0  0.1566317706284192  0.6210311954611034  0.34908710574918966  1.0000
  C   C24       1.0  0.8433682296986705  0.3789688055987732  0.6509128942077729  1.0000
  C   C25       1.0  0.28142046044106794  0.5009104058430769  0.35365793912843463  1.0000
  C   C26       1.0  0.7185795387063285  0.49908959397570174  0.6463420608325328  1.0000
  C   C27       1.0  0.6159799508572882  0.30813125400837943  0.3736935049147156  1.0000
  C   C28       1.0  0.3840200495179531  0.6918687458177926  0.6263064950461656  1.0000
  C   C29       1.0  0.6581850386942516  0.4065253864929842  0.41976292601969895  1.0000
  C   C30       1.0  0.3418149604531446  0.5934746133257944  0.5802370739412684  1.0000
  C   C31       1.0  0.7234708355454694  0.33972647578126053  0.4748736406986827  1.0000
  C   C32       1.0  0.2765291648297716  0.6602735240449112  0.5251263592621985  1.0000
  C   C33       1.0  0.748114081518323  0.16808925332594649  0.4865842340264669  1.0000
  C   C34       1.0  0.2518859188569181  0.8319107465002256  0.5134157659344143  1.0000
  C   C35       1.0  0.7041557819159942  0.06356603404258661  0.44469658999961126  1.0000
  C   C36       1.0  0.2958442184110955  0.93643396701729  0.5553034099573513  1.0000
  C   C37       1.0  0.6392376241030642  0.13353568011867642  0.38980830951692347  1.0000
  C   C38       1.0  0.36076237627217694  0.8664643197074956  0.6101916904439577  1.0000
  C   C39       1.0  0.6450704545721867  0.6407180985653533  0.03317573774641394  1.0000
  C   C40       1.0  0.35492954580305447  0.3592819012608186  0.9668242622144673  1.0000
  C   C41       1.0  0.5018521302083282  0.7360254115941567  0.06530580101219936  1.0000
  C   C42       1.0  0.49814786889091683  0.2639745894583266  0.9346941989448494  1.0000
  C   C43       1.0  0.21270174641575618  0.731986544442357  0.10869946825197728  1.0000
  C   C44       1.0  0.787298253959485  0.26801345538381505  0.8913005317089039  1.0000
  C   C45       1.0  0.06728980796850872  0.6228751234697589  0.10785369882472995  1.0000
  C   C46       1.0  0.9327101924067325  0.3771248763564131  0.8921463011361512  1.0000
  O   O1        1.0  0.04727280037589326  0.13628321213436576  0.05992400371992756  1.0000
  O   O2        1.0  0.9527271987233519  0.8637167889181174  0.9400759962371212  1.0000
  O   O3        1.0  0.8038633593912007  0.010980936834767295  0.041318874367965934  1.0000
  O   O4        1.0  0.19613664098404046  0.9890190629914047  0.9586811255929152  1.0000
  O   O5        1.0  0.5070994427016937  0.8815557746006301  0.0763601286037127  1.0000
  O   O6        1.0  0.4929005576735473  0.11844422522554188  0.9236398713571686  1.0000
  O   O7        1.0  0.36262469797403146  0.6475154775683665  0.08011749910122562  1.0000
  O   O8        1.0  0.6373753024012099  0.35248452225780547  0.9198825008596555  1.0000
  Cl  Cl1       1.0  0.9451944826705307  0.3710151839751873  0.28370194680320254  1.0000
  Cl  Cl2       1.0  0.054805517704710316  0.6289848158509848  0.7162980531576787  1.0000
  Cl  Cl3       1.0  0.3294431258074564  0.2731292090947128  0.2235934820382705  1.0000
  Cl  Cl4       1.0  0.6705568733399401  0.7268707907240658  0.7764065179226968  1.0000
  Cl  Cl5       1.0  0.6492115642794442  0.6973725287698528  0.21767679307342644  1.0000
  Cl  Cl6       1.0  0.35078843609579696  0.30262747105631926  0.7823232068874547  1.0000
  Cl  Cl7       1.0  0.029004375879932178  0.9075247569811469  0.2954731645074205  1.0000
  Cl  Cl8       1.0  0.9709956242540032  0.09247524392558792  0.704526835935009  1.0000
  Cl  Cl9       1.0  0.23355056415529352  0.32642917479772793  0.40975901604290865  1.0000
  Cl  Cl10      1.0  0.7664494362199474  0.6735708250284441  0.5902409839179726  1.0000
  Cl  Cl11      1.0  0.6469351960245688  0.620885311087449  0.4049061522031921  1.0000
  Cl  Cl12      1.0  0.35306480435067245  0.379114688738723  0.595093847757689  1.0000
  Cl  Cl13      1.0  0.8352987909967294  0.08472367973067396  0.5532737627800549  1.0000
  Cl  Cl14      1.0  0.1647012081506668  0.9152763200881046  0.4467262371809124  1.0000
  Cl  Cl15      1.0  0.573747531205123  0.9971616131266665  0.34301011206278825  1.0000
  Cl  Cl16      1.0  0.4262524689288124  0.0028383877800681155  0.6569898883796411  1.0000
