data_image0
_chemical_formula_structural       H52C80N8O16S8
_chemical_formula_sum              "H52 C80 N8 O16 S8"
_cell_length_a       14.375522977911421
_cell_length_b       16.026997112646395
_cell_length_c       7.607735118970212
_cell_angle_alpha    90.0
_cell_angle_beta     86.7861416476443
_cell_angle_gamma    90.0

_space_group_name_H-M_alt    "P 1"
_space_group_IT_number       1

loop_
  _space_group_symop_operation_xyz
  'x, y, z'

loop_
  _atom_site_type_symbol
  _atom_site_label
  _atom_site_symmetry_multiplicity
  _atom_site_fract_x
  _atom_site_fract_y
  _atom_site_fract_z
  _atom_site_occupancy
  H   H1        1.0  0.10223785740930212  0.6109734338364227  0.55433154672727  1.0000
  H   H2        1.0  0.6022378577735186  0.8890265662278692  0.05433154646828999  1.0000
  H   H3        1.0  0.8977621425407313  0.38902656599845625  0.44566845322996596  1.0000
  H   H4        1.0  0.39776214217651484  0.11097343360700965  0.9456684534889461  1.0000
  H   H5        1.0  0.022038138889135406  0.7492813036401118  0.5613153447318655  1.0000
  H   H6        1.0  0.5220381385581568  0.7507186964241801  0.061315344459534585  1.0000
  H   H7        1.0  0.977961861060898  0.25071869619476705  0.43868465522537065  1.0000
  H   H8        1.0  0.47796186139187663  0.24928130403464602  0.9386846554977015  1.0000
  H   H9        1.0  0.09587268966481095  0.873267770726452  0.6898703234050851  1.0000
  H   H10       1.0  0.5958726892877199  0.62673222933784  0.1898703244492087  1.0000
  H   H11       1.0  0.9041273102852224  0.12673222910842694  0.31012967655215107  1.0000
  H   H12       1.0  0.4041273106623137  0.3732677704970389  0.8101296755080274  1.0000
  H   H13       1.0  0.2507272401200615  0.8623054888488714  0.8178259851815678  1.0000
  H   H14       1.0  0.7507272404842781  0.6376945112154206  0.31782598492258757  1.0000
  H   H15       1.0  0.749272759829972  0.13769451098600752  0.18217401477566844  1.0000
  H   H16       1.0  0.24927276016095049  0.3623054886194583  0.6821740150479993  1.0000
  H   H17       1.0  0.8819639169310565  0.6894740613187381  0.9039225209551414  1.0000
  H   H18       1.0  0.38196391728058104  0.8105259387455538  0.40392252164142584  1.0000
  H   H19       1.0  0.11803608301897686  0.3105259385161408  0.09607747900209485  1.0000
  H   H20       1.0  0.6180360826694523  0.1894740610893251  0.5960774783158103  1.0000
  H   H21       1.0  0.9287856118179234  0.8384925495117292  0.8692158658484176  1.0000
  H   H22       1.0  0.42878561151836553  0.6615074505525627  0.3692158652048969  1.0000
  H   H23       1.0  0.07121438813211002  0.16150745032314962  0.1307841341088185  1.0000
  H   H24       1.0  0.5712143884316678  0.33849254990626343  0.6307841347523392  1.0000
  H   H25       1.0  0.8247869264133925  0.9401309318331836  0.728847688047416  1.0000
  H   H26       1.0  0.32478692606772186  0.5598690682311083  0.22884768872034966  1.0000
  H   H27       1.0  0.17521307423183602  0.05986906800169522  0.271152311923171  1.0000
  H   H28       1.0  0.6752130738823117  0.4401309316037706  0.7711523112368864  1.0000
  H   H29       1.0  0.6738028840914129  0.8949343703744919  0.6173945956722451  1.0000
  H   H30       1.0  0.17380288379185502  0.6050656296898002  0.11739459502872449  1.0000
  H   H31       1.0  0.32619711585862055  0.1050656294603871  0.38260540428499096  1.0000
  H   H32       1.0  0.8261971161581785  0.39493437076902593  0.8826054049285116  1.0000
  H   H33       1.0  0.862704699066604  0.5931359002054707  0.4997110325092214  1.0000
  H   H34       1.0  0.3627046993975825  0.906864099234874  0.9997110327815524  1.0000
  H   H35       1.0  0.1372953008834295  0.4068640996294081  0.5002889674480148  1.0000
  H   H36       1.0  0.637295300552451  0.09313590060000489  0.00028896717568383104  1.0000
  H   H37       1.0  0.09124039726088302  0.46919917793373295  0.22143452672127656  1.0000
  H   H38       1.0  0.591240397560441  0.030800822295680118  0.7214345273647973  1.0000
  H   H39       1.0  0.9087596026891505  0.530800821901146  0.7785654732359596  1.0000
  H   H40       1.0  0.4087596023895925  0.9691991775391988  0.27856547259243886  1.0000
  H   H41       1.0  0.9958944683633563  0.5683506620720866  0.06433006091167412  1.0000
  H   H42       1.0  0.49589446799913983  0.9316493379922053  0.5643300611706542  1.0000
  H   H43       1.0  0.004105531586677146  0.43164933838673947  0.9356699390455621  1.0000
  H   H44       1.0  0.5041055319508937  0.0683506618426736  0.43566993878658183  1.0000
  H   H45       1.0  0.9224556784154121  0.6373713046931013  0.18919169023755883  1.0000
  H   H46       1.0  0.42245567805119555  0.8626286953711907  0.689191690496539  1.0000
  H   H47       1.0  0.07754432153462143  0.36262869514177765  0.8108083097196773  1.0000
  H   H48       1.0  0.577544321898838  0.13737130508763543  0.31080830946069715  1.0000
  H   H49       1.0  0.8793620617786619  0.5388594257114685  0.12698405448248198  1.0000
  H   H50       1.0  0.3793620621096404  0.9611405743528234  0.6269840547548128  1.0000
  H   H51       1.0  0.12063793817137156  0.4611405741234104  0.873015945474754  1.0000
  H   H52       1.0  0.6206379378403931  0.038859426106002626  0.3730159452024232  1.0000
  C   C1        1.0  0.35106572181502727  0.7050184311248212  0.829381843332943  1.0000
  C   C2        1.0  0.851065722133131  0.7949815689394708  0.32938184439041746  1.0000
  C   C3        1.0  0.6489342781350061  0.29498156871005776  0.17061815662429314  1.0000
  C   C4        1.0  0.14893427781690238  0.20501843089540808  0.6706181555668187  1.0000
  C   C5        1.0  0.2834755278175312  0.5872352620924597  0.6992371947695908  1.0000
  C   C6        1.0  0.7834755274865527  0.9127647379718322  0.19923719449725993  1.0000
  C   C7        1.0  0.7165244721325021  0.41276473774241923  0.30076280518764525  1.0000
  C   C8        1.0  0.21652447246348078  0.08723526186304659  0.8007628054599762  1.0000
  C   C9        1.0  0.21989556267531196  0.6595959040672996  0.6866843974408386  1.0000
  C   C10       1.0  0.7198955630395285  0.8404040959969923  0.18668439718185847  1.0000
  C   C11       1.0  0.7801044372747215  0.34040409576757924  0.3133156025163975  1.0000
  C   C12       1.0  0.2801044369105051  0.15959590446183378  0.8133156027753776  1.0000
  C   C13       1.0  0.13380366519217746  0.6650928882734354  0.6135427491146476  1.0000
  C   C14       1.0  0.633803665556394  0.8349071117908566  0.11354274885566741  1.0000
  C   C15       1.0  0.8661963347578561  0.33490711156144354  0.3864572508425886  1.0000
  C   C16       1.0  0.3661963343936395  0.16509288804402228  0.8864572511015686  1.0000
  C   C17       1.0  0.08949163496729073  0.7430361237541667  0.6179627503996128  1.0000
  C   C18       1.0  0.5894916346363123  0.7569638763101252  0.1179627501272819  1.0000
  C   C19       1.0  0.9105083656779377  0.25696387670465937  0.3820372495709741  1.0000
  C   C20       1.0  0.41050836531372126  0.2430361235247537  0.8820372498299542  1.0000
  C   C21       1.0  0.13121578269349596  0.8130331607608553  0.6903611285762316  1.0000
  C   C22       1.0  0.6312157823625175  0.6869668393034367  0.19036112830390073  1.0000
  C   C23       1.0  0.8687842179517326  0.18696683907402362  0.30963887139435525  1.0000
  C   C24       1.0  0.368784217587516  0.3130331605314422  0.8096388716533355  1.0000
  C   C25       1.0  0.21831943910127907  0.8074668947053377  0.7630662374551195  1.0000
  C   C26       1.0  0.7183194394654955  0.6925331053589541  0.26306623719613936  1.0000
  C   C27       1.0  0.7816805608487545  0.19253310512954108  0.23693376250211665  1.0000
  C   C28       1.0  0.2816805604845379  0.30746689447592473  0.7369337627610968  1.0000
  C   C29       1.0  0.26099682756580006  0.7297281959807411  0.7613350972497585  1.0000
  C   C30       1.0  0.7609968279300166  0.7702718040835509  0.2613350969907783  1.0000
  C   C31       1.0  0.7390031723842334  0.27027180385413785  0.2386649027074777  1.0000
  C   C32       1.0  0.2390031720200169  0.229728195751328  0.7386649029664578  1.0000
  C   C33       1.0  0.6099897642886354  0.72231455079413  0.6430691520295702  1.0000
  C   C34       1.0  0.10998976468427243  0.7776854492701619  0.14306915139940024  1.0000
  C   C35       1.0  0.3900102356613981  0.2776854490407489  0.35693084792766594  1.0000
  C   C36       1.0  0.8900102352657611  0.22231455056471697  0.856930848557836  1.0000
  C   C37       1.0  0.7066170843656713  0.6273097586114116  0.7866103454799298  1.0000
  C   C38       1.0  0.20661708476130844  0.8726902414528804  0.28661034484975995  1.0000
  C   C39       1.0  0.29338291558436214  0.3726902412234674  0.21338965447730623  1.0000
  C   C40       1.0  0.793382915188725  0.12730975900594568  0.7133896551074762  1.0000
  C   C41       1.0  0.7523076646636032  0.7099116565649205  0.7784852996921837  1.0000
  C   C42       1.0  0.25230766436404534  0.7900883428754243  0.278485299048663  1.0000
  C   C43       1.0  0.24769233528643023  0.2900883432699584  0.2215147002650524  1.0000
  C   C44       1.0  0.7476923355859881  0.20991165695945463  0.7215147009085731  1.0000
  C   C45       1.0  0.837223925026104  0.733952429598814  0.8409961601737929  1.0000
  C   C46       1.0  0.3372239247265461  0.7660475698415307  0.3409961595302721  1.0000
  C   C47       1.0  0.16277607492392945  0.2660475702360648  0.15900383978344326  1.0000
  C   C48       1.0  0.6627760752234874  0.23395242999334823  0.659003840426964  1.0000
  C   C49       1.0  0.8628023084843915  0.8177770188563938  0.8203526737544361  1.0000
  C   C50       1.0  0.36280230813872094  0.6822229812078981  0.32035267442736987  1.0000
  C   C51       1.0  0.13719769146564195  0.1822229809784851  0.17964732620280008  1.0000
  C   C52       1.0  0.6371976917651999  0.31777701925092794  0.6796473268463208  1.0000
  C   C53       1.0  0.8045176165141276  0.8748942419747328  0.7411877799801505  1.0000
  C   C54       1.0  0.3045176161684569  0.6251057580895591  0.24118778065308438  1.0000
  C   C55       1.0  0.195482383435906  0.12510575848409325  0.25881221997708553  1.0000
  C   C56       1.0  0.6954823837815766  0.37489424174531977  0.7588122193041517  1.0000
  C   C57       1.0  0.7191139318917693  0.850134637464236  0.6779643508336015  1.0000
  C   C58       1.0  0.2191139315460988  0.6498653626000559  0.1779643515065353  1.0000
  C   C59       1.0  0.2808860680582641  0.14986536237064293  0.32203564912363464  1.0000
  C   C60       1.0  0.7808860684039347  0.35013463785877014  0.8220356484507009  1.0000
  C   C61       1.0  0.6942516013792056  0.766786725774282  0.6968554768110451  1.0000
  C   C62       1.0  0.19425160177484269  0.73321327429001  0.19685547618087523  1.0000
  C   C63       1.0  0.3057483985708279  0.23321327468454417  0.303144523146191  1.0000
  C   C64       1.0  0.8057483981751908  0.2667867255448689  0.8031445237763608  1.0000
  C   C65       1.0  0.9727046010715796  0.5354705831467472  0.33949726985533274  1.0000
  C   C66       1.0  0.4727046007073632  0.9645294169175447  0.839497270114313  1.0000
  C   C67       1.0  0.027295398878453805  0.46452941668813164  0.6605027301019032  1.0000
  C   C68       1.0  0.5272953992426703  0.03547058291733421  0.1605027298429232  1.0000
  C   C69       1.0  0.9229141650910808  0.5519741819270384  0.49933512666279567  1.0000
  C   C70       1.0  0.42291416542205934  0.9480258175133064  0.9993351269351266  1.0000
  C   C71       1.0  0.07708583485895265  0.4480258179078406  0.5006648732944404  1.0000
  C   C72       1.0  0.5770858345279741  0.05197418232157251  0.0006648730221095528  1.0000
  C   C73       1.0  0.0506389845660196  0.4830227450338469  0.34330246804180503  1.0000
  C   C74       1.0  0.5506389842164952  0.016977254571618968  0.8433024673555205  1.0000
  C   C75       1.0  0.9493610160792089  0.516977254801032  0.6566975319287819  1.0000
  C   C76       1.0  0.4493610157335383  0.98302274526326  0.15669753260171568  1.0000
  C   C77       1.0  0.9413140494263804  0.5716383790180404  0.1706310974805039  1.0000
  C   C78       1.0  0.44131404910827665  0.9283616210462515  0.6706310964230295  1.0000
  C   C79       1.0  0.058685950523652976  0.4283616208168385  0.8293689024767322  1.0000
  C   C80       1.0  0.5586859508417568  0.0716383787886274  0.32936890353420667  1.0000
  N   N1        1.0  0.36083180064685244  0.6181491735705525  0.7911962284024298  1.0000
  N   N2        1.0  0.8608318003158741  0.8818508264937395  0.2911962281300988  1.0000
  N   N3        1.0  0.6391681993031809  0.3818508262643264  0.20880377155480637  1.0000
  N   N4        1.0  0.1391681996341595  0.11814917334113942  0.7088037718271372  1.0000
  N   N5        1.0  0.6223023101411467  0.637634850631889  0.6972049468242429  1.0000
  N   N6        1.0  0.12230231053678375  0.862365149432403  0.19720494619407292  1.0000
  N   N7        1.0  0.3776976898088868  0.36236514920298996  0.30279505313299315  1.0000
  N   N8        1.0  0.8776976894132497  0.13763485102642312  0.8027950537631632  1.0000
  O   O1        1.0  0.4077055670880988  0.746988087403678  0.9034564707023176  1.0000
  O   O2        1.0  0.9077055674523153  0.753011912660614  0.40345647044333754  1.0000
  O   O3        1.0  0.5922944328619347  0.2530119124312009  0.09654352925491849  1.0000
  O   O4        1.0  0.09229443249771818  0.24698808779821213  0.5965435295138987  1.0000
  O   O5        1.0  0.27721977070515275  0.5158813533120288  0.6455404530890315  1.0000
  O   O6        1.0  0.7772197703741743  0.9841186467522631  0.14554045281670058  1.0000
  O   O7        1.0  0.7227802292448807  0.48411864652285014  0.35445954686820463  1.0000
  O   O8        1.0  0.22278022957585925  0.015881353706562917  0.8544595471405355  1.0000
  O   O9        1.0  0.5427334802022852  0.7477252279869677  0.5685460655701733  1.0000
  O   O10       1.0  0.04273347990272729  0.7522747720773242  0.06854606492665248  1.0000
  O   O11       1.0  0.4572665197477483  0.25227477184791114  0.4314539343870629  1.0000
  O   O12       1.0  0.9572665200473062  0.2477252283815019  0.9314539350305836  1.0000
  O   O13       1.0  0.7312632925562784  0.5626181328057337  0.8545833036731663  1.0000
  O   O14       1.0  0.23126329221060798  0.9373818672585582  0.3545833043461001  1.0000
  O   O15       1.0  0.268736707393755  0.4373818670291452  0.1454166962840699  1.0000
  O   O16       1.0  0.7687367077394255  0.06261813257632064  0.6454166956111361  1.0000
  S   S1        1.0  0.4489929641719657  0.5577735415542177  0.8552260565681354  1.0000
  S   S2        1.0  0.9489929645361822  0.9422264585100744  0.3552260563091553  1.0000
  S   S3        1.0  0.5510070357780679  0.44222645828066126  0.14477394338910068  1.0000
  S   S4        1.0  0.051007035413851334  0.05777354132480457  0.6447739436480808  1.0000
  S   S5        1.0  0.54843534948556  0.5592176567454369  0.6536723399625429  1.0000
  S   S6        1.0  0.04843534913988958  0.9407823433188551  0.15367234063547666  1.0000
  S   S7        1.0  0.4515646504644733  0.44078234308944203  0.3463276599946933  1.0000
  S   S8        1.0  0.951564650810144  0.059217656516023835  0.8463276593217595  1.0000
