data_image0
_chemical_formula_structural       H28C20N4O6S2
_chemical_formula_sum              "H28 C20 N4 O6 S2"
_cell_length_a       5.024963282327818
_cell_length_b       11.214293467228424
_cell_length_c       11.353180026473584
_cell_angle_alpha    61.269569659419304
_cell_angle_beta     81.2857454433197
_cell_angle_gamma    87.90134946786374

_space_group_name_H-M_alt    "P 1"
_space_group_IT_number       1

loop_
  _space_group_symop_operation_xyz
  'x, y, z'

loop_
  _atom_site_type_symbol
  _atom_site_label
  _atom_site_symmetry_multiplicity
  _atom_site_fract_x
  _atom_site_fract_y
  _atom_site_fract_z
  _atom_site_occupancy
  H   H1        1.0  0.007796676305164711  0.4583605413372855  0.14442428088490314  1.0000
  H   H2        1.0  0.9922033231711852  0.5416394588651949  0.8555757193779745  1.0000
  H   H3        1.0  0.6023355143067198  0.528830389460925  0.2389124454624198  1.0000
  H   H4        1.0  0.39766448509274005  0.47116960972376665  0.761087555291009  1.0000
  H   H5        1.0  0.3271045651420176  0.3621938352716654  0.459565980130377  1.0000
  H   H6        1.0  0.6728954343343323  0.6378061649308152  0.5404340201325006  1.0000
  H   H7        1.0  0.48157422067498445  0.1250578323608109  0.584410631471076  1.0000
  H   H8        1.0  0.518425780814941  0.8749421678453412  0.4155893686510629  1.0000
  H   H9        1.0  0.4323711312992022  0.3913859171261235  0.12116919095744953  1.0000
  H   H10       1.0  0.5676288681771476  0.608614083076357  0.878830809305428  1.0000
  H   H11       1.0  0.2364016918914583  0.33550857718540733  0.039263454069530926  1.0000
  H   H12       1.0  0.7635983075848916  0.664491423017073  0.9607365461933467  1.0000
  H   H13       1.0  0.25775940846956974  0.11297019519911988  0.31006158046371324  1.0000
  H   H14       1.0  0.7422405909206272  0.8870298039830823  0.68993841941072  1.0000
  H   H15       1.0  0.9105223228964038  0.2707712918699126  0.9483144859120394  1.0000
  H   H16       1.0  0.08947767859352161  0.7292287083362393  0.05168551421009933  1.0000
  H   H17       1.0  0.9649162369110953  0.5643522282608486  0.3794666380380514  1.0000
  H   H18       1.0  0.03508376457883002  0.4356477719453034  0.6205333620840874  1.0000
  H   H19       1.0  0.16960022827719645  0.6727862376524827  0.41072298235535387  1.0000
  H   H20       1.0  0.8303997711222636  0.32721376153220916  0.5892770183980751  1.0000
  H   H21       1.0  0.2721206457745256  0.645057418609348  0.266759403494987  1.0000
  H   H22       1.0  0.7278793556385099  0.35494258057901523  0.7332405971177031  1.0000
  H   H23       1.0  0.0935903263364793  0.021366160953774974  0.09657382419993171  1.0000
  H   H24       1.0  0.9064096731306076  0.978633839246216  0.9034261751839502  1.0000
  H   H25       1.0  0.3446230194657079  0.8975670922588312  0.10882730564493873  1.0000
  H   H26       1.0  0.6553769820242175  0.10243290794732063  0.8911726944772002  1.0000
  H   H27       1.0  0.2412822285131315  0.9321091126141048  0.24810640641462006  1.0000
  H   H28       1.0  0.7587177709632184  0.06789088758837583  0.7518935938482574  1.0000
  C   C1        1.0  0.8312164127542179  0.1562254723530719  0.4374068466759961  1.0000
  C   C2        1.0  0.16878358671286878  0.843774527846919  0.5625931527078858  1.0000
  C   C3        1.0  0.9812229637591189  0.2500288675723127  0.307517642923868  1.0000
  C   C4        1.0  0.018777035707967668  0.7499711326276783  0.6924823564600138  1.0000
  C   C5        1.0  0.8928832995712493  0.3847361819062025  0.24053453647646542  1.0000
  C   C6        1.0  0.10711670191867607  0.6152638182999495  0.7594654636456735  1.0000
  C   C7        1.0  0.6634179685695534  0.42428914847149624  0.29522983591502083  1.0000
  C   C8        1.0  0.3365820329203721  0.5757108517346556  0.7047701642071181  1.0000
  C   C9        1.0  0.5112719352511647  0.3317132935329995  0.41919300242941115  1.0000
  C   C10       1.0  0.4887280642251851  0.6682867066694809  0.5808069978334666  1.0000
  C   C11       1.0  0.5962964153574049  0.19987499825408095  0.4883078809807699  1.0000
  C   C12       1.0  0.4037035861232573  0.8001250019495815  0.5116921182623732  1.0000
  C   C13       1.0  0.3556470948230041  0.29954836701567306  0.12326391206756951  1.0000
  C   C14       1.0  0.6443529046440827  0.7004516331843178  0.8767360873163125  1.0000
  C   C15       1.0  0.5947070037305355  0.22958283426198303  0.08991193036017903  1.0000
  C   C16       1.0  0.4052929957365511  0.7704171659380079  0.9100880690237028  1.0000
  C   C17       1.0  0.1000632614315137  0.6549701626565475  0.33301540910783567  1.0000
  C   C18       1.0  0.899936738035573  0.34502983754344335  0.6669845902760462  1.0000
  C   C19       1.0  0.17620415770161482  0.9248090979201631  0.16379176698861106  1.0000
  C   C20       1.0  0.8237958417654718  0.07519090227982778  0.8362082323952706  1.0000
  N   N1        1.0  0.8944899615801802  0.023235332389805338  0.521260395683817  1.0000
  N   N2        1.0  0.1055100378869065  0.9767646678101857  0.47873960370006496  1.0000
  N   N3        1.0  0.19940305250541715  0.21039445670030962  0.251577474805116  1.0000
  N   N4        1.0  0.8005969469709326  0.7896055435021709  0.7484225254577616  1.0000
  O   O1        1.0  0.7502385031567638  0.31766017330111096  0.9759156581989865  1.0000
  O   O2        1.0  0.2497614962426962  0.6823398258835809  0.024084342554442244  1.0000
  O   O3        1.0  0.6382900393074352  0.10865361475133198  0.1578751584054421  1.0000
  O   O4        1.0  0.361709962173227  0.8913463854523304  0.8421248408377011  1.0000
  O   O5        1.0  0.8454683479460737  0.7755287631406947  0.11693833481169119  1.0000
  O   O6        1.0  0.15453165353458856  0.22447123706296765  0.883061664431452  1.0000
  S   S1        1.0  0.9089595229502172  0.7976259208201265  0.23328752528358837  1.0000
  S   S2        1.0  0.09104047652613283  0.20237407938235405  0.7667124749792892  1.0000
