data_image0
_chemical_formula_structural       H88C144N16Cl32I8
_chemical_formula_sum              "H88 C144 N16 Cl32 I8"
_cell_length_a       3.9097250741008116
_cell_length_b       49.5878916153185
_cell_length_c       18.884052195062868
_cell_angle_alpha    90.0
_cell_angle_beta     92.29847060645328
_cell_angle_gamma    90.0

_space_group_name_H-M_alt    "P 1"
_space_group_IT_number       1

loop_
  _space_group_symop_operation_xyz
  'x, y, z'

loop_
  _atom_site_type_symbol
  _atom_site_label
  _atom_site_symmetry_multiplicity
  _atom_site_fract_x
  _atom_site_fract_y
  _atom_site_fract_z
  _atom_site_occupancy
  H   H1        1.0  0.7449993491737832  0.3149114191250678  0.48028135623444324  1.0000
  H   H2        1.0  0.7550006511146454  0.8149114191722718  0.019718643854866044  1.0000
  H   H3        1.0  0.25500065135381306  0.6850885809693403  0.5197186439026916  1.0000
  H   H4        1.0  0.24499934941295085  0.18508858092213626  0.9802813562822686  1.0000
  H   H5        1.0  0.4378454229250149  0.43140472891958015  0.06686632266918242  1.0000
  H   H6        1.0  0.062154577338783296  0.9314047289667842  0.433133677399385  1.0000
  H   H7        1.0  0.5621545776025815  0.568595271174828  0.9331336774679523  1.0000
  H   H8        1.0  0.9378454231888129  0.0685952711276239  0.5668663227377498  1.0000
  H   H9        1.0  0.8773592626482445  0.28099810570884465  0.16650209516165332  1.0000
  H   H10       1.0  0.6226407376401841  0.7809981057560487  0.3334979049276559  1.0000
  H   H11       1.0  0.12264073787935177  0.7190018941839013  0.8334979049754815  1.0000
  H   H12       1.0  0.3773592628874122  0.21900189413669727  0.6665020952094789  1.0000
  H   H13       1.0  0.10688779943431255  0.33957115702007945  0.14235511209757085  1.0000
  H   H14       1.0  0.3931122007071738  0.8395711570672835  0.35764488744103845  1.0000
  H   H15       1.0  0.8931122009709719  0.6604288430743286  0.8576448875096059  1.0000
  H   H16       1.0  0.6068877996981106  0.1604288430271246  0.6423551121661382  1.0000
  H   H17       1.0  0.8251067237587514  0.35214024353892354  0.8999901736527113  1.0000
  H   H18       1.0  0.6748932769103311  0.8521402435861276  0.6000098260230328  1.0000
  H   H19       1.0  0.17489327676884478  0.6478597565554846  0.10000982648442346  1.0000
  H   H20       1.0  0.32510672349495334  0.14785975650828054  0.3999901735841439  1.0000
  H   H21       1.0  0.3400230948558839  0.3442542875673815  0.24192990144098717  1.0000
  H   H22       1.0  0.15997690540791423  0.8442542876145855  0.2580700986275802  1.0000
  H   H23       1.0  0.6599769056717123  0.6557457125270267  0.7580700986961476  1.0000
  H   H24       1.0  0.840023095119682  0.15574571247982258  0.7419299015095545  1.0000
  H   H25       1.0  0.6238162548492402  0.27775769550454465  0.06471096294848218  1.0000
  H   H26       1.0  0.8761837454391884  0.7777576955517488  0.43528903714082706  1.0000
  H   H27       1.0  0.3761837456783561  0.7222423045898635  0.9352890371886525  1.0000
  H   H28       1.0  0.12381625253154754  0.2222423045426594  0.5647109630003802  1.0000
  H   H29       1.0  0.04472062355603009  0.35686708415191687  0.02553463046737685  1.0000
  H   H30       1.0  0.45527937658545625  0.8568670841991209  0.4744653690712325  1.0000
  H   H31       1.0  0.9552793768492543  0.6431329159424912  0.9744653691397999  1.0000
  H   H32       1.0  0.5447206238198282  0.14313291589528718  0.5255346305359443  1.0000
  H   H33       1.0  0.9561379142366231  0.26418205217567925  0.2849943414316446  1.0000
  H   H34       1.0  0.5438620860518055  0.7641820522228834  0.21500565865766466  1.0000
  H   H35       1.0  0.043862086290973205  0.7358179477170668  0.7150056587054903  1.0000
  H   H36       1.0  0.45613791435347895  0.2358179478715248  0.784994340949512  1.0000
  H   H37       1.0  0.41731819826201405  0.2769229161128108  0.9389535406527806  1.0000
  H   H38       1.0  0.08268180238243802  0.7769229161600149  0.5610464590022216  1.0000
  H   H39       1.0  0.5826818021432704  0.7230770839815973  0.061046458954396136  1.0000
  H   H40       1.0  0.9173181980228463  0.22307708393439324  0.438953540604955  1.0000
  H   H41       1.0  0.5461211504012874  0.3463881290466855  0.3670317578377639  1.0000
  H   H42       1.0  0.953878847330281  0.8463881290938896  0.13296824225561785  1.0000
  H   H43       1.0  0.45387884756944863  0.6536118708460604  0.6329682423034434  1.0000
  H   H44       1.0  0.0461211505181432  0.1536118710005185  0.8670317573556312  1.0000
  H   H45       1.0  0.18774208625038485  0.2698927315527496  0.40908050298711135  1.0000
  H   H46       1.0  0.31225791401341335  0.7698927315999536  0.09091949708145608  1.0000
  H   H47       1.0  0.8122579142772114  0.7301072683399963  0.5909194971500235  1.0000
  H   H48       1.0  0.687742086514183  0.23010726849445443  0.9090805030556788  1.0000
  H   H49       1.0  0.806526148599387  0.4084809708614972  0.6023938867279341  1.0000
  H   H50       1.0  0.6934738520696955  0.9084809709087013  0.89760611294781  1.0000
  H   H51       1.0  0.1934738519282092  0.5915190292329109  0.39760611340920066  1.0000
  H   H52       1.0  0.3065261483355889  0.09151902918570683  0.10239388665936675  1.0000
  H   H53       1.0  0.956613156641154  0.40830939833193697  0.7137306040147056  1.0000
  H   H54       1.0  0.5433868441502404  0.9083093981774789  0.7862693961909967  1.0000
  H   H55       1.0  0.0433868438864423  0.5916906017624711  0.2862693961224292  1.0000
  H   H56       1.0  0.45661315637735583  0.09169060171526706  0.2137306039461382  1.0000
  H   H57       1.0  0.6325422654286097  0.41553798193014085  0.47650699550682335  1.0000
  H   H58       1.0  0.8674577348598189  0.9155379819773449  0.02349300458248589  1.0000
  H   H59       1.0  0.3674577350989866  0.5844620179626051  0.5234930046303115  1.0000
  H   H60       1.0  0.13254226566777733  0.08446201791540112  0.9765069955546488  1.0000
  H   H61       1.0  0.35597516320264216  0.4863175588725846  0.6464059480613613  1.0000
  H   H62       1.0  0.14402483756412177  0.9863175587181265  0.853594052123599  1.0000
  H   H63       1.0  0.6440248373249541  0.5136824412218235  0.3535940520757735  1.0000
  H   H64       1.0  0.8559751629634744  0.01368244117461944  0.1464059480135358  1.0000
  H   H65       1.0  0.5777424551249495  0.46129220894186385  0.7442662046494419  1.0000
  H   H66       1.0  0.922257545544133  0.9612922089890679  0.7557337950263022  1.0000
  H   H67       1.0  0.4222575454026467  0.5387077909508822  0.2557337954876929  1.0000
  H   H68       1.0  0.07774245486115133  0.03870779090367808  0.24426620458087442  1.0000
  H   H69       1.0  0.20193945573077918  0.3849195512902914  0.8144652660217998  1.0000
  H   H70       1.0  0.29806054503598467  0.8849195513374954  0.6855347341631605  1.0000
  H   H71       1.0  0.798060544796817  0.6150804486024546  0.18553473411533497  1.0000
  H   H72       1.0  0.7019394554916115  0.11508044875691266  0.31446526597397434  1.0000
  H   H73       1.0  0.7277432394091591  0.46236754564731725  0.8517532081236169  1.0000
  H   H74       1.0  0.7722567587030633  0.9623675456945213  0.6482467915561996  1.0000
  H   H75       1.0  0.2722567584392652  0.5376324542454287  0.14824679148763228  1.0000
  H   H76       1.0  0.22774323926767268  0.03763245439988675  0.3517532085850076  1.0000
  H   H77       1.0  0.2030930513158253  0.48979617420348354  0.5180532651126787  1.0000
  H   H78       1.0  0.2969069494509386  0.9897961740490253  0.9819467350722816  1.0000
  H   H79       1.0  0.796906949211771  0.5102038258909246  0.4819467350244562  1.0000
  H   H80       1.0  0.7030930510766576  0.01020382584372054  0.018053265064853136  1.0000
  H   H81       1.0  0.37003054131544993  0.3839926342848948  0.943121998955591  1.0000
  H   H82       1.0  0.12996945932900217  0.8839926341304367  0.5568780006994113  1.0000
  H   H83       1.0  0.6299694590898346  0.6160073658095132  0.05687800065158573  1.0000
  H   H84       1.0  0.870030541198594  0.11600736576230923  0.44312199943772357  1.0000
  H   H85       1.0  0.911102919286653  0.4577201726194871  0.9773207170594348  1.0000
  H   H86       1.0  0.5888970815047413  0.9577201726666912  0.5226792831462673  1.0000
  H   H87       1.0  0.08889708124094318  0.5422798272732589  0.022679283077699907  1.0000
  H   H88       1.0  0.4111029190228549  0.04227982742771698  0.4773207169908675  1.0000
  C   C1        1.0  0.145083816243633  0.31521404723671276  0.6739479121974378  1.0000
  C   C2        1.0  0.3549161845231309  0.8152140472839168  0.8260520879875225  1.0000
  C   C3        1.0  0.8549161842839632  0.6847859526560331  0.32605208793969703  1.0000
  C   C4        1.0  0.6450838160044654  0.18478595260882913  0.17394791214961228  1.0000
  C   C5        1.0  0.9866377228260004  0.2919826739624328  0.6451999588867019  1.0000
  C   C6        1.0  0.513362277965394  0.791982674009637  0.8548000413190002  1.0000
  C   C7        1.0  0.013362277701595903  0.7080173261319752  0.35480004125043285  1.0000
  C   C8        1.0  0.4866377225622023  0.2080173260847712  0.14519995881813452  1.0000
  C   C9        1.0  0.16611307832200617  0.3382548566517081  0.6309459699162333  1.0000
  C   C10       1.0  0.33388692244475776  0.8382548566989123  0.869054030268727  1.0000
  C   C11       1.0  0.83388692220559  0.6617451434427  0.3690540302209014  1.0000
  C   C12       1.0  0.6661130780828385  0.1617451433954959  0.13094596986840787  1.0000
  C   C13       1.0  0.8467522702053967  0.29227865650014306  0.5755695396597186  1.0000
  C   C14       1.0  0.6532477305859978  0.7922786565473471  0.9244304605459837  1.0000
  C   C15       1.0  0.15324773032219963  0.707721343392603  0.42443046047741617  1.0000
  C   C16       1.0  0.34675226994159847  0.207721343547061  0.07556953959115119  1.0000
  C   C17       1.0  0.029994027415840088  0.33798616384050006  0.5608929956893453  1.0000
  C   C18       1.0  0.470005973228612  0.8379861638877041  0.9391070039656569  1.0000
  C   C19       1.0  0.9700059729894444  0.6620138360522458  0.4391070039178315  1.0000
  C   C20       1.0  0.5299940271766724  0.16201383620670395  0.06089299564151972  1.0000
  C   C21       1.0  0.8661060591202546  0.31514682598790755  0.5334605783123239  1.0000
  C   C22       1.0  0.6338939416711397  0.8151468260351116  0.9665394218933783  1.0000
  C   C23       1.0  0.13389394140734162  0.6848531739048384  0.466539421824811  1.0000
  C   C24       1.0  0.3661060588564565  0.1848531740592965  0.03346057824375644  1.0000
  C   C25       1.0  0.8931655886970933  0.44346285824353976  0.2533709242511868  1.0000
  C   C26       1.0  0.6068344115913352  0.9434628580890816  0.2466290758381225  1.0000
  C   C27       1.0  0.10683441170819112  0.5565371418508683  0.7466290753559899  1.0000
  C   C28       1.0  0.3931655889362609  0.05653714180366434  0.7533709242990123  1.0000
  C   C29       1.0  0.8196038100980834  0.465240121095877  0.20755779931555973  1.0000
  C   C30       1.0  0.6803961901903451  0.965240121143081  0.29244220077374955  1.0000
  C   C31       1.0  0.18039619042951288  0.5347598789985312  0.7924422008215751  1.0000
  C   C32       1.0  0.31960381033725105  0.034759878951327115  0.7075577993633853  1.0000
  C   C33       1.0  0.5677702988693112  0.43505428719085976  0.11844299325405762  1.0000
  C   C34       1.0  0.9322296988622573  0.9350542872380637  0.38155700683932414  1.0000
  C   C35       1.0  0.43222969910142484  0.5649457127018862  0.8815570068871497  1.0000
  C   C36       1.0  0.06777029910847887  0.0649457126546822  0.6184429933018832  1.0000
  C   C37       1.0  0.6566654531508997  0.4609374029715579  0.140770345874173  1.0000
  C   C38       1.0  0.8433345471375289  0.9609374030187618  0.3592296542151363  1.0000
  C   C39       1.0  0.3433345446975245  0.5390625969211882  0.8592296537370762  1.0000
  C   C40       1.0  0.15666545339006738  0.039062597075646174  0.6407703459219984  1.0000
  C   C41       1.0  0.8040354759632058  0.4172771014448201  0.2305238600297198  1.0000
  C   C42       1.0  0.6959645217683627  0.9172771014920241  0.269476140063662  1.0000
  C   C43       1.0  0.19596452188521843  0.5827228984479259  0.7694761395815294  1.0000
  C   C44       1.0  0.3040354762023734  0.08272289840072186  0.7305238600775453  1.0000
  C   C45       1.0  0.6440410061696737  0.41341996588673324  0.16326051032265596  1.0000
  C   C46       1.0  0.8559589941187549  0.9134199657322751  0.3367394897666533  1.0000
  C   C47       1.0  0.35595899435792244  0.5865800342076749  0.8367394898144788  1.0000
  C   C48       1.0  0.14404100640884138  0.08658003416047082  0.6632605103704815  1.0000
  C   C49       1.0  0.859420838409049  0.3174655680488118  0.05638569654206003  1.0000
  C   C50       1.0  0.6405791618793796  0.8174655680960159  0.44361430354724923  1.0000
  C   C51       1.0  0.1405791621185472  0.6825344318439343  0.9436143035950749  1.0000
  C   C52       1.0  0.3594208386482167  0.1825344317967301  0.5563856965898855  1.0000
  C   C53       1.0  0.12631671859621962  0.3037611475166416  0.25178538258803196  1.0000
  C   C54       1.0  0.3736832816675785  0.8037611475638456  0.24821461748053542  1.0000
  C   C55       1.0  0.8736832819313766  0.6962388523761043  0.7482146175491028  1.0000
  C   C56       1.0  0.6263167188600177  0.19623885253056242  0.7517853826565993  1.0000
  C   C57       1.0  0.9900836526829082  0.3006551785999793  0.17929311204275802  1.0000
  C   C58       1.0  0.5099163476055204  0.8006551786471834  0.3207068880465513  1.0000
  C   C59       1.0  0.009916347844688023  0.6993448212927666  0.8207068880943768  1.0000
  C   C60       1.0  0.49008365292207584  0.1993448212455626  0.6792931120905835  1.0000
  C   C61       1.0  0.9940662408515083  0.3200019184743489  0.12896537019193918  1.0000
  C   C62       1.0  0.5059337594369202  0.8200019185215529  0.37103462989737007  1.0000
  C   C63       1.0  0.005933759676087931  0.6799980816200591  0.8710346299451955  1.0000
  C   C64       1.0  0.494066241090676  0.17999808157285516  0.6289653702397647  1.0000
  C   C65       1.0  0.7852818669364271  0.33618375246367943  0.9386037157131487  1.0000
  C   C66       1.0  0.7147181337326555  0.8361837523092214  0.5613962839625952  1.0000
  C   C67       1.0  0.21471813359116912  0.6638162476307287  0.061396284423985925  1.0000
  C   C68       1.0  0.28528186667262906  0.16381624758352462  0.4386037156445815  1.0000
  C   C69       1.0  0.296580521042685  0.32714826848957174  0.2765930779748682  1.0000
  C   C70       1.0  0.20341947922111317  0.8271482683351136  0.22340692209369917  1.0000
  C   C71       1.0  0.7034194794849112  0.6728517316048364  0.7234069221622665  1.0000
  C   C72       1.0  0.7965805213064832  0.1728517315576323  0.7765930780434356  1.0000
  C   C73       1.0  0.6789190314297054  0.29472469677426777  0.03039570219983472  1.0000
  C   C74       1.0  0.8210809688587231  0.7947246968214718  0.46960429788947455  1.0000
  C   C75       1.0  0.32108096909789074  0.7052753031184783  0.9696042979373001  1.0000
  C   C76       1.0  0.17891903166887316  0.20527530327293628  0.5303957022476602  1.0000
  C   C77       1.0  0.9089941816767102  0.3386584513468659  0.00833063746716492  1.0000
  C   C78       1.0  0.5910058186117183  0.8386584513940699  0.4916693626221444  1.0000
  C   C79       1.0  0.09100581885088607  0.66134154854588  0.9916693626699699  1.0000
  C   C80       1.0  0.40899418191587783  0.16134154849867602  0.5083306375149904  1.0000
  C   C81       1.0  0.08758822509853836  0.2827586252057662  0.3008486536805783  1.0000
  C   C82       1.0  0.41241177516525973  0.7827586252529702  0.19915134638798915  1.0000
  C   C83       1.0  0.9124117754290579  0.7172413746869798  0.6991513464565565  1.0000
  C   C84       1.0  0.5875882252400247  0.21724137463977572  0.8008486532191875  1.0000
  C   C85       1.0  0.5622366009357705  0.29417429607944234  0.9600509761307865  1.0000
  C   C86       1.0  0.9377633998556238  0.7941742959249842  0.5399490240749157  1.0000
  C   C87       1.0  0.4377633995918258  0.7058257040149658  0.03994902400634828  1.0000
  C   C88       1.0  0.062236600671972356  0.20582570396776173  0.4600509760622191  1.0000
  C   C89       1.0  0.41395625835008837  0.32837723281966985  0.34685960239540603  1.0000
  C   C90       1.0  0.08604374191370974  0.828377232866874  0.15314039767316137  1.0000
  C   C91       1.0  0.5860437421775079  0.6716227672747382  0.6531403977417287  1.0000
  C   C92       1.0  0.9139562586138864  0.17162276722753417  0.8468596024639733  1.0000
  C   C93       1.0  0.21637413561857927  0.28595311855565214  0.3701820197661181  1.0000
  C   C94       1.0  0.28362586464521883  0.7859531184011941  0.12981798030244932  1.0000
  C   C95       1.0  0.783625864909017  0.7140468815387561  0.6298179803710168  1.0000
  C   C96       1.0  0.7163741358823773  0.21404688149155193  0.8701820198346855  1.0000
  C   C97       1.0  0.59195441563713  0.44681633395269105  0.6368533656655779  1.0000
  C   C98       1.0  0.9080455825974041  0.9468163339998951  0.8631466345441968  1.0000
  C   C99       1.0  0.4080455848904662  0.5531836661417171  0.3631466344715569  1.0000
  C   C100      1.0  0.09195441537333192  0.05318366609451299  0.13685336559701056  1.0000
  C   C101      1.0  0.9492226178070026  0.42386121702958396  0.8208075153113984  1.0000
  C   C102      1.0  0.5507773829843918  0.923861217076788  0.6791924848943038  1.0000
  C   C103      1.0  0.050777382720593664  0.576138782863162  0.17919248482573638  1.0000
  C   C104      1.0  0.44922261754320447  0.07613878301762013  0.32080751524283097  1.0000
  C   C105      1.0  0.6712071596331506  0.4268942616923164  0.5869622838785153  1.0000
  C   C106      1.0  0.828792841035932  0.9268942617395204  0.9130377157972287  1.0000
  C   C107      1.0  0.32879284077213383  0.5731057382004295  0.41303771572866127  1.0000
  C   C108      1.0  0.1712071594916643  0.07310573835488762  0.08696228433990609  1.0000
  C   C109      1.0  0.8599582651294653  0.42497447791246745  0.7451342912522997  1.0000
  C   C110      1.0  0.640041735661929  0.9249744779596715  0.7548657089534025  1.0000
  C   C111      1.0  0.14004173539813092  0.5750255219802786  0.2548657088848351  1.0000
  C   C112      1.0  0.3599582648656672  0.07502552213473665  0.2451342911837323  1.0000
  C   C113      1.0  0.5748022565922549  0.4307244374431509  0.516129458625512  1.0000
  C   C114      1.0  0.9251977441991395  0.9307244374903549  0.9838705415801905  1.0000
  C   C115      1.0  0.4251977439353413  0.5692755626512572  0.4838705415116229  1.0000
  C   C116      1.0  0.07480225632845679  0.06927556260405317  0.016129458556944483  1.0000
  C   C117      1.0  0.42158343483414035  0.4699819944109215  0.6108091617788166  1.0000
  C   C118      1.0  0.07841656593262353  0.9699819944581255  0.8891908384061437  1.0000
  C   C119      1.0  0.5784165656934559  0.5300180054818245  0.38919083835831814  1.0000
  C   C120      1.0  0.9215834345949727  0.030018005434620437  0.11080916173099115  1.0000
  C   C121      1.0  0.6755544372840849  0.4447865323878085  0.7125065932555337  1.0000
  C   C122      1.0  0.8244455608281375  0.9447865324350125  0.7874934064242829  1.0000
  C   C123      1.0  0.32444556312119954  0.5552134675049375  0.287493406351643  1.0000
  C   C124      1.0  0.1755544370202868  0.055213467659395554  0.21250659318696624  1.0000
  C   C125      1.0  0.13087375383236033  0.40153536944992996  0.8488770816058869  1.0000
  C   C126      1.0  0.3691262443775434  0.901535369295472  0.6511229185831457  1.0000
  C   C127      1.0  0.8691262441383757  0.5984646306444782  0.1511229185353203  1.0000
  C   C128      1.0  0.6308737561500529  0.09846463059727407  0.34887708155398894  1.0000
  C   C129      1.0  0.8684831650660865  0.4444004841131913  0.8688189068800269  1.0000
  C   C130      1.0  0.6315168330461359  0.9444004839587332  0.6311810927997897  1.0000
  C   C131      1.0  0.13151683278233772  0.5555995159812168  0.13118109273122225  1.0000
  C   C132      1.0  0.36848316492460015  0.055599515934012786  0.3688189073414176  1.0000
  C   C133      1.0  0.3358692229327401  0.47198935279534715  0.5388946010267358  1.0000
  C   C134      1.0  0.1641307778340238  0.9719893528425513  0.9611053991582246  1.0000
  C   C135      1.0  0.6641307775948562  0.528010647299061  0.46110539911039894  1.0000
  C   C136      1.0  0.8358692226935726  0.02801064725185692  0.03889460097891034  1.0000
  C   C137      1.0  0.2232318874577074  0.40095457222177955  0.9209185934422659  1.0000
  C   C138      1.0  0.27676811318674466  0.9009545722689837  0.5790814062127362  1.0000
  C   C139      1.0  0.776768112947577  0.5990454278726286  0.07908140616491069  1.0000
  C   C140      1.0  0.7232318873408516  0.09904542782542448  0.4209185939243986  1.0000
  C   C141      1.0  0.9714705387527939  0.44183723377405537  0.9397438843096647  1.0000
  C   C142      1.0  0.5285294593594285  0.9418372336195973  0.5602561153701519  1.0000
  C   C143      1.0  0.028529459095630386  0.5581627663203528  0.0602561153015845  1.0000
  C   C144      1.0  0.4714705410458559  0.058162766273148696  0.4397438842370248  1.0000
  N   N1        1.0  0.6136296461001002  0.3144407015922258  0.9144519256707894  1.0000
  N   N2        1.0  0.8863703546912941  0.8144407016394298  0.5855480745349128  1.0000
  N   N3        1.0  0.38637035442749607  0.6855592983005202  0.08554807446634541  1.0000
  N   N4        1.0  0.11362964583630206  0.18555929845497826  0.414451925602222  1.0000
  N   N5        1.0  0.3778670139797736  0.3082533044272046  0.39367387352159355  1.0000
  N   N6        1.0  0.12213298628402448  0.8082533042727466  0.10632612654697383  1.0000
  N   N7        1.0  0.6221329864255107  0.6917466956672035  0.6063261260855831  1.0000
  N   N8        1.0  0.8778670142435717  0.19174669561999946  0.893673873590161  1.0000
  N   N9        1.0  0.4082399735646145  0.45280146379653213  0.4918206176700454  1.0000
  N   N10       1.0  0.09176002657687178  0.9528014638437362  0.008179381868563847  1.0000
  N   N11       1.0  0.59176002684067  0.547198536297876  0.5081793819371313  1.0000
  N   N12       1.0  0.9082399738284126  0.04719853625067191  0.9918206177386127  1.0000
  N   N13       1.0  0.14753154889255224  0.4206053964100574  0.9665636934523307  1.0000
  N   N14       1.0  0.35246845175189984  0.9206053964572615  0.5334363062026715  1.0000
  N   N15       1.0  0.8524684515127322  0.5793946036843507  0.033436306154846  1.0000
  N   N16       1.0  0.6475315486533845  0.07939460363714665  0.4665636934045051  1.0000
  Cl  Cl1       1.0  0.6466584270543883  0.2640484042268733  0.5394979887549534  1.0000
  Cl  Cl2       1.0  0.8533415711801459  0.7640484042740774  0.9605020114548215  1.0000
  Cl  Cl3       1.0  0.353341573473208  0.7359515958675349  0.4605020113821816  1.0000
  Cl  Cl4       1.0  0.14665842679059013  0.23595159582033076  0.03949798868638585  1.0000
  Cl  Cl5       1.0  0.9566230748010444  0.26298975163467914  0.6946583054746107  1.0000
  Cl  Cl6       1.0  0.5433769234334898  0.7629897514802211  0.8053416947351639  1.0000
  Cl  Cl7       1.0  0.04337692572655188  0.737010248459729  0.3053416946625241  1.0000
  Cl  Cl8       1.0  0.4566230745372462  0.23701024841252494  0.1946583054060433  1.0000
  Cl  Cl9       1.0  0.35676358469071673  0.3673109167717336  0.6636818608417981  1.0000
  Cl  Cl10      1.0  0.14323641595373535  0.8673109168189376  0.8363181388132039  1.0000
  Cl  Cl11      1.0  0.6432364157145677  0.6326890833226745  0.33631813876537847  1.0000
  Cl  Cl12      1.0  0.8567635845738609  0.13268908327547047  0.16368186132393087  1.0000
  Cl  Cl13      1.0  0.06230943112848736  0.3657674405821479  0.5063615855285634  1.0000
  Cl  Cl14      1.0  0.4376905670814163  0.865767440629352  0.9936384146604694  1.0000
  Cl  Cl15      1.0  0.9376905693991089  0.6342325593105981  0.4936384146085715  1.0000
  Cl  Cl16      1.0  0.5623094308893196  0.13423255926339403  0.006361585480737777  1.0000
  Cl  Cl17      1.0  0.9291804750843854  0.4975881594525728  0.23244388420727177  1.0000
  Cl  Cl18      1.0  0.5708195252040432  0.9975881594997767  0.2675561158820375  1.0000
  Cl  Cl19      1.0  0.07081952544321082  0.5024118406418353  0.767556115929863  1.0000
  Cl  Cl20      1.0  0.429180475323553  0.002411840594631255  0.7324438842550972  1.0000
  Cl  Cl21      1.0  0.5615627454363317  0.487597954508127  0.08431960775908001  1.0000
  Cl  Cl22      1.0  0.938437254852097  0.9875979545553311  0.41568039233022924  1.0000
  Cl  Cl23      1.0  0.43843725253440435  0.512402045384619  0.9156803923821272  1.0000
  Cl  Cl24      1.0  0.061562745675499346  0.012402045539077108  0.5843196078069055  1.0000
  Cl  Cl25      1.0  0.8895206150543122  0.38978971681121055  0.2839078579404057  1.0000
  Cl  Cl26      1.0  0.6104793852341162  0.8897897168584146  0.2160921421489036  1.0000
  Cl  Cl27      1.0  0.11047938547328388  0.6102102832831976  0.7160921421967291  1.0000
  Cl  Cl28      1.0  0.389520612614308  0.11021028323599351  0.7839078574623456  1.0000
  Cl  Cl29      1.0  0.5367211903462427  0.381533212719927  0.13294514941998847  1.0000
  Cl  Cl30      1.0  0.9632788073853258  0.8815332127671311  0.3670548506733933  1.0000
  Cl  Cl31      1.0  0.4632788076244935  0.618466787172819  0.8670548507212189  1.0000
  Cl  Cl32      1.0  0.03672119058541026  0.11846678732727701  0.632945149467814  1.0000
  I   I1        1.0  0.34865278850908915  0.3151354395388853  0.7800610274949671  1.0000
  I   I2        1.0  0.1513472122576748  0.8151354393844272  0.7199389726899932  1.0000
  I   I3        1.0  0.6513472120185071  0.6848645605555228  0.21993897264216772  1.0000
  I   I4        1.0  0.8486527882699215  0.18486456050831876  0.28006102744714156  1.0000
  I   I5        1.0  0.12618152771026184  0.4496973556163721  0.35579168285799506  1.0000
  I   I6        1.0  0.37381847255353634  0.9496973556635762  0.14420831721057234  1.0000
  I   I7        1.0  0.8738184728173345  0.5503026442763739  0.6442083172791397  1.0000
  I   I8        1.0  0.6261815279740599  0.05030264443083196  0.8557916829265625  1.0000
