data_image0
_chemical_formula_structural       H68C116N8P4S20
_chemical_formula_sum              "H68 C116 N8 P4 S20"
_cell_length_a       11.62218987062098
_cell_length_b       11.585905267782856
_cell_length_c       18.899073705672674
_cell_angle_alpha    90.0
_cell_angle_beta     99.47960249355917
_cell_angle_gamma    90.0

_space_group_name_H-M_alt    "P 1"
_space_group_IT_number       1

loop_
  _space_group_symop_operation_xyz
  'x, y, z'

loop_
  _atom_site_type_symbol
  _atom_site_label
  _atom_site_symmetry_multiplicity
  _atom_site_fract_x
  _atom_site_fract_y
  _atom_site_fract_z
  _atom_site_occupancy
  H   H1        1.0  0.7207523117710499  0.5168345970039074  0.759118567388586  1.0000
  H   H2        1.0  0.279247687976943  0.016834596476665714  0.24088143278277827  1.0000
  H   H3        1.0  0.8319548133484332  0.32271520986771424  0.7652508882448981  1.0000
  H   H4        1.0  0.16804518639955965  0.8227152103949559  0.2347491119264662  1.0000
  H   H5        1.0  0.08702662193273826  0.7450650968124061  0.45577588056638485  1.0000
  H   H6        1.0  0.9129733786765394  0.24506509628516449  0.5442241196082576  1.0000
  H   H7        1.0  0.26589152859280524  0.36245459314061995  0.48111461896560354  1.0000
  H   H8        1.0  0.7341084718780623  0.8624545928047438  0.5188853806725966  1.0000
  H   H9        1.0  0.4158034382065119  0.36292186003732535  0.39304429032617527  1.0000
  H   H10       1.0  0.5841965614030706  0.8629218597014493  0.6069557093087469  1.0000
  H   H11       1.0  0.3587380588550053  0.7421017427018326  0.29172732267322293  1.0000
  H   H12       1.0  0.6412619417542723  0.24210174217459096  0.7082726775014193  1.0000
  H   H13       1.0  0.5232348802518253  0.40991396271867137  0.31467215273748195  1.0000
  H   H14       1.0  0.4767651193577572  0.9099139623827953  0.6853278468974403  1.0000
  H   H15       1.0  0.6793252055275635  0.8127104315433348  0.2241997376925408  1.0000
  H   H16       1.0  0.32067479508171426  0.31271043187921077  0.7758002624821014  1.0000
  H   H17       1.0  0.8726038595548964  0.8876401103155254  0.2013167648497377  1.0000
  H   H18       1.0  0.12739614005468608  0.3876401097882836  0.7986832347851847  1.0000
  H   H19       1.0  0.9765429333146395  0.7855383364222562  0.11535078744442148  1.0000
  H   H20       1.0  0.023457067294638322  0.2855383367581323  0.8846492127302208  1.0000
  H   H21       1.0  0.8878789047070221  0.6136982890557207  0.04913547186532741  1.0000
  H   H22       1.0  0.1121210950409707  0.11369828939159672  0.9508645283060368  1.0000
  H   H23       1.0  0.693142954876633  0.544494696287744  0.06737805204755275  1.0000
  H   H24       1.0  0.3068570448713597  0.044494696623620086  0.9326219481238115  1.0000
  H   H25       1.0  0.4915291649638995  0.7464952051739921  0.031530994984208645  1.0000
  H   H26       1.0  0.5084708347840934  0.24649520550986825  0.9684690051871558  1.0000
  H   H27       1.0  0.37310812707039276  0.7022657825992241  0.9126380599353116  1.0000
  H   H28       1.0  0.6268918735388851  0.2022657829351001  0.08736194023933082  1.0000
  H   H29       1.0  0.279727806213535  0.5100437853943234  0.8904976230540609  1.0000
  H   H30       1.0  0.7202721935344577  0.010043784867081735  0.10950237711730348  1.0000
  H   H31       1.0  0.30308485819259967  0.36146040755617276  0.986559022476608  1.0000
  H   H32       1.0  0.6969151415553931  0.8614604072202968  0.013440977694756284  1.0000
  H   H33       1.0  0.4138601979543571  0.4073850899786643  0.10749395590592861  1.0000
  H   H34       1.0  0.5861398016552254  0.9073850905059061  0.8925060437289938  1.0000
  H   H35       1.0  0.2643201428137493  0.5246345684270549  0.7595941797282675  1.0000
  H   H36       1.0  0.7356798567958333  0.02463456876293089  0.24040581990665477  1.0000
  H   H37       1.0  0.265898702378652  0.732220438880167  0.7140723906940752  1.0000
  H   H38       1.0  0.7341012973693409  0.23222043835292522  0.2859276094772891  1.0000
  H   H39       1.0  0.7142333363971197  0.32632874795838185  0.506357791292905  1.0000
  H   H40       1.0  0.2857666642121579  0.8263287484856235  0.4936422088817374  1.0000
  H   H41       1.0  0.7063933503966293  0.7193291734548125  0.41304495432678057  1.0000
  H   H42       1.0  0.29360664935136355  0.21932917379068856  0.5869550458445838  1.0000
  H   H43       1.0  0.8458915723651713  0.704297082653562  0.31771936316868216  1.0000
  H   H44       1.0  0.15410842724441118  0.20429708298943794  0.68228063646624  1.0000
  H   H45       1.0  0.019414099006798056  0.6387957305831056  0.2779587944607042  1.0000
  H   H46       1.0  0.9805859006027845  0.13879573091898154  0.722041205174218  1.0000
  H   H47       1.0  0.8832944971961628  0.30246159441200066  0.3056416480736445  1.0000
  H   H48       1.0  0.11670550341311493  0.8024615940761246  0.6943583521009977  1.0000
  H   H49       1.0  0.26323951936573364  0.3576442327318415  0.2733589063722929  1.0000
  H   H50       1.0  0.7367604803822592  0.8576442332590831  0.7266410937990715  1.0000
  H   H51       1.0  0.44343847943955583  0.23911713465357526  0.27952948131430766  1.0000
  H   H52       1.0  0.556561520308437  0.7391171351808169  0.7204705188570566  1.0000
  H   H53       1.0  0.331959339806211  0.1245706223762514  0.0626822603205417  1.0000
  H   H54       1.0  0.6680406598033716  0.6245706220403754  0.9373177393143806  1.0000
  H   H55       1.0  0.4779764376229162  0.12474723093231217  0.17398974869360856  1.0000
  H   H56       1.0  0.5220235621250766  0.6247472305964361  0.8260102514777558  1.0000
  H   H57       1.0  0.15060366446875167  0.2415688222294254  0.055595401170977096  1.0000
  H   H58       1.0  0.849396336140526  0.7415688218935493  0.9444045990036651  1.0000
  H   H59       1.0  0.1337279858845214  0.4848408821035494  0.04029356007854127  1.0000
  H   H60       1.0  0.8662720147247563  0.9848408826307911  0.9597064400961008  1.0000
  H   H61       1.0  0.027739338449039235  0.5236728205323102  0.9175867473786731  1.0000
  H   H62       1.0  0.9722606611605432  0.02367282000506863  0.08241325225624918  1.0000
  H   H63       1.0  0.8241052961805525  0.4531363962209117  0.8817305852950796  1.0000
  H   H64       1.0  0.17589470356744025  0.9531363958850356  0.11826941487628467  1.0000
  H   H65       1.0  0.7271573267525476  0.3428562868579506  0.9667255933387608  1.0000
  H   H66       1.0  0.2728426729954452  0.8428562865220746  0.03327440683260343  1.0000
  H   H67       1.0  0.8288883840673041  0.30943178173301733  0.09209845222964187  1.0000
  H   H68       1.0  0.1711116155422785  0.8094317813971413  0.9079015474052805  1.0000
  C   C1        1.0  0.7867038014954074  0.4950595061353905  0.7266036516808331  1.0000
  C   C2        1.0  0.21329619825258525  0.9950595066626323  0.2733963484905313  1.0000
  C   C3        1.0  0.8436400237668725  0.3936907746590672  0.7293248123796289  1.0000
  C   C4        1.0  0.15635997598112028  0.8936907743231911  0.27067518779173544  1.0000
  C   C5        1.0  0.9262615020309891  0.5155157514198261  0.6342813938547974  1.0000
  C   C6        1.0  0.07373849843987834  0.015515750892584387  0.3657186057834028  1.0000
  C   C7        1.0  0.9898589172628094  0.5540637983507731  0.5846618040556514  1.0000
  C   C8        1.0  0.010141083346468314  0.05406379868664913  0.41533819611899087  1.0000
  C   C9        1.0  0.07445290994524764  0.6730519031330086  0.4908164368556623  1.0000
  C   C10       1.0  0.92554709066403  0.17305190346888455  0.50918356331898  1.0000
  C   C11       1.0  0.13045475783453475  0.5700732232263396  0.4907137699935435  1.0000
  C   C12       1.0  0.8695452417750478  0.07007322269909794  0.5092862296413787  1.0000
  C   C13       1.0  0.21717719641156596  0.5384928856054695  0.4477779614129747  1.0000
  C   C14       1.0  0.7828228040593015  0.03849288594134555  0.5522220382252255  1.0000
  C   C15       1.0  0.2787277526430049  0.4359870914917852  0.44734240713769763  1.0000
  C   C16       1.0  0.7212722478278625  0.9359870920190269  0.5526575925005026  1.0000
  C   C17       1.0  0.3597361725212193  0.43637650344499235  0.3990656440445029  1.0000
  C   C18       1.0  0.6402638280880584  0.9363765031091162  0.6009343561301393  1.0000
  C   C19       1.0  0.36184146260392064  0.5391645413647859  0.3614846506495489  1.0000
  C   C20       1.0  0.6381585370056619  0.039164541700661894  0.6385153489853733  1.0000
  C   C21       1.0  0.4283632363401103  0.5698830179770245  0.3051043515517133  1.0000
  C   C22       1.0  0.5716367634078825  0.06988301831290053  0.694895648619651  1.0000
  C   C23       1.0  0.4136211059974246  0.6780988570523193  0.2709106873156292  1.0000
  C   C24       1.0  0.5863788937505683  0.17809885652507765  0.7290893128557351  1.0000
  C   C25       1.0  0.46225093884224316  0.7139530894492577  0.2117957447472318  1.0000
  C   C26       1.0  0.5377490609057497  0.21395308978513378  0.7882042554241325  1.0000
  C   C27       1.0  0.5591711414037237  0.49715162664214124  0.2225976866502277  1.0000
  C   C28       1.0  0.440828858344269  0.9971516263062652  0.7774023135211365  1.0000
  C   C29       1.0  0.504718985399785  0.48830473400570473  0.282864847990306  1.0000
  C   C30       1.0  0.4952810143482078  0.9883047336698286  0.7171351521810583  1.0000
  C   C31       1.0  0.4358036724740071  0.8217211378789284  0.17883913363203058  1.0000
  C   C32       1.0  0.5641963272739858  0.3217211382148045  0.8211608665393338  1.0000
  C   C33       1.0  0.6289348597030514  0.409212572554314  0.2010660979423071  1.0000
  C   C34       1.0  0.37106514004494145  0.9092125730815556  0.7989339022290572  1.0000
  C   C35       1.0  0.6743615788546823  0.6754163562652273  0.1468397122912137  1.0000
  C   C36       1.0  0.3256384208933106  0.1754163557379857  0.8531602878801506  1.0000
  C   C37       1.0  0.7251886659795922  0.7709820780978454  0.1852420803595184  1.0000
  C   C38       1.0  0.27481133449127526  0.2709820784337214  0.8147579192786818  1.0000
  C   C39       1.0  0.8332327405338206  0.8117062942117143  0.1731369386944223  1.0000
  C   C40       1.0  0.1667672592141721  0.3117062936844725  0.826863061476942  1.0000
  C   C41       1.0  0.8914804793337908  0.7549007417073179  0.1242054042401896  1.0000
  C   C42       1.0  0.10851952027579174  0.254900742043194  0.8757945953947327  1.0000
  C   C43       1.0  0.8416296226239354  0.6585356226945975  0.08661111492773514  1.0000
  C   C44       1.0  0.1583703771240575  0.1585356230304735  0.9133888852436293  1.0000
  C   C45       1.0  0.7324624159131293  0.6191154911257676  0.09713682409178803  1.0000
  C   C46       1.0  0.2675375846961483  0.11911549146164357  0.9028631760828542  1.0000
  C   C47       1.0  0.4598970953330041  0.579445789934783  0.07689139479831274  1.0000
  C   C48       1.0  0.5401029044149888  0.079445790270659  0.9231086053730517  1.0000
  C   C49       1.0  0.44919075599708314  0.6625442347906368  0.021942445323669686  1.0000
  C   C50       1.0  0.5508092446121946  0.16254423426339512  0.9780575548509727  1.0000
  C   C51       1.0  0.38361338575441983  0.637586631278716  0.9551540166627938  1.0000
  C   C52       1.0  0.616386613993573  0.13758663075147423  0.044845983508570594  1.0000
  C   C53       1.0  0.33140271819548694  0.5291791084334722  0.9426494785519732  1.0000
  C   C54       1.0  0.6685972815525059  0.029179107906230472  0.05735052161939114  1.0000
  C   C55       1.0  0.3436338928233665  0.4459697434578437  0.9968424487093102  1.0000
  C   C56       1.0  0.6563661069246264  0.9459697439850854  0.003157551462054167  1.0000
  C   C57       1.0  0.4063544784233251  0.4713180311584733  0.06459985295527922  1.0000
  C   C58       1.0  0.5936455211862574  0.9713180308225973  0.9354001466796431  1.0000
  C   C59       1.0  0.30860281254519945  0.5518544025885637  0.7160098577285166  1.0000
  C   C60       1.0  0.691397187925668  0.05185440206132194  0.2839901419096836  1.0000
  C   C61       1.0  0.30610917327848136  0.6602711746031664  0.6908346994604916  1.0000
  C   C62       1.0  0.6938908273307963  0.16027117407592478  0.3091653007141507  1.0000
  C   C63       1.0  0.5159417084153377  0.517526616299309  0.5756484355428413  1.0000
  C   C64       1.0  0.48405829219394  0.017526616635184955  0.424351564631801  1.0000
  C   C65       1.0  0.4376153167761933  0.5497567564022462  0.617905654862609  1.0000
  C   C66       1.0  0.5623846828333892  0.049756756738122195  0.38209434477231324  1.0000
  C   C67       1.0  0.6615587197774075  0.39924583561567356  0.5182639963930109  1.0000
  C   C68       1.0  0.3384412798321751  0.8992458361429152  0.4817360032419113  1.0000
  C   C69       1.0  0.6640487624176933  0.5051466333212978  0.4875820043286411  1.0000
  C   C70       1.0  0.3359512373302996  0.005146633657173932  0.5124179958427232  1.0000
  C   C71       1.0  0.7339456830922096  0.5352553276302369  0.43424697011263336  1.0000
  C   C72       1.0  0.2660543166557831  0.03525532796611293  0.565753030058731  1.0000
  C   C73       1.0  0.7496281044381006  0.6397621954161243  0.4013762106006538  1.0000
  C   C74       1.0  0.25037189530989223  0.13976219575200038  0.5986237895707105  1.0000
  C   C75       1.0  0.8256174698323587  0.6318382319555144  0.3501369469564705  1.0000
  C   C76       1.0  0.17438253063850861  0.13183823142827272  0.6498630526817297  1.0000
  C   C77       1.0  0.8684411380557763  0.5214054094502389  0.34316365385810066  1.0000
  C   C78       1.0  0.13155886169221653  0.021405408922997252  0.6568363463132636  1.0000
  C   C79       1.0  0.9394341924557069  0.4761095738749816  0.29271829445446135  1.0000
  C   C80       1.0  0.060565808015160504  0.9761095744022232  0.7072817051837389  1.0000
  C   C81       1.0  0.01112669518710974  0.5492374296978642  0.2599919775093745  1.0000
  C   C82       1.0  0.9888733045608831  0.04923742917062246  0.7400080226619898  1.0000
  C   C83       1.0  0.07511257940038459  0.5173143212784925  0.20661336513632372  1.0000
  C   C84       1.0  0.9248874203476084  0.017314321614368626  0.7933866350350406  1.0000
  C   C85       1.0  0.9773706925030219  0.3039084619301232  0.2197790052348923  1.0000
  C   C86       1.0  0.02262930796784554  0.8039084624573648  0.7802209944033079  1.0000
  C   C87       1.0  0.9315814458303724  0.3584242675924001  0.27459195363372674  1.0000
  C   C88       1.0  0.06841855377921015  0.8584242672565241  0.7254080460011955  1.0000
  C   C89       1.0  0.14143634166102903  0.5989850235783981  0.1758677307949441  1.0000
  C   C90       1.0  0.8585636580869638  0.09898502305115638  0.8241322693764203  1.0000
  C   C91       1.0  0.9521468577988659  0.18697874874084472  0.20427565191683447  1.0000
  C   C92       1.0  0.04785314267200157  0.6869787492680864  0.7957243477213657  1.0000
  C   C93       1.0  0.19682876309220523  0.3084021513567728  0.1635107437672179  1.0000
  C   C94       1.0  0.8031712373786621  0.8084021510208967  0.8364892558709823  1.0000
  C   C95       1.0  0.2789062488380441  0.3077011357855007  0.22690054473487586  1.0000
  C   C96       1.0  0.7210937509099488  0.8077011363127423  0.7730994554364884  1.0000
  C   C97       1.0  0.38002465386929335  0.24185731328150523  0.23019006848224827  1.0000
  C   C98       1.0  0.6199753457402892  0.741857313808747  0.7698099311526739  1.0000
  C   C99       1.0  0.3172995460786511  0.1771912597722162  0.108079223457822  1.0000
  C   C100      1.0  0.6827004545306266  0.6771912594363402  0.8919207767168201  1.0000
  C   C101      1.0  0.3996807703214034  0.1772905036356368  0.17087568047254448  1.0000
  C   C102      1.0  0.6003192302878743  0.6772905041628785  0.8291243197020979  1.0000
  C   C103      1.0  0.21558208526544562  0.2422731918761109  0.10422013626471113  1.0000
  C   C104      1.0  0.7844179144825472  0.7422731924033525  0.8957798639066533  1.0000
  C   C105      1.0  0.9882417760413311  0.39298826244168933  0.0734844151363421  1.0000
  C   C106      1.0  0.011758223568251397  0.8929882621058133  0.9265155844985802  1.0000
  C   C107      1.0  0.0445231156105613  0.45402904377507036  0.024649679674238804  1.0000
  C   C108      1.0  0.9554768841374315  0.9540290443023121  0.9753503204971253  1.0000
  C   C109      1.0  0.9848542147296648  0.4765859639258607  0.9558689916203889  1.0000
  C   C110      1.0  0.015145785879612968  0.9765859644531023  0.044131008554253316  1.0000
  C   C111      1.0  0.870650979417249  0.43649460125162676  0.9356141989846274  1.0000
  C   C112      1.0  0.12934902119202865  0.9364946017788685  0.06438580119001487  1.0000
  C   C113      1.0  0.8154903660862755  0.37456482421510984  0.9838662232912209  1.0000
  C   C114      1.0  0.18450963452300223  0.8745648238792337  0.01613377688342139  1.0000
  C   C115      1.0  0.8732901707817224  0.3538017880569491  0.05340187173642903  1.0000
  C   C116      1.0  0.12670982982755524  0.8538017877210731  0.9465981284382133  1.0000
  N   N1        1.0  0.4160973979914164  0.9089574855478937  0.14769416086319728  1.0000
  N   N2        1.0  0.5839026026178612  0.408957485020652  0.852305839311445  1.0000
  N   N3        1.0  0.6853337983214286  0.33845566482440304  0.17840631824506809  1.0000
  N   N4        1.0  0.31466620128815387  0.8384556644885269  0.8215936813898541  1.0000
  N   N5        1.0  0.1943594926097279  0.6667070661693909  0.14797245090856412  1.0000
  N   N6        1.0  0.805640507138265  0.166707066505267  0.8520275492628001  1.0000
  N   N7        1.0  0.9272198196149528  0.09075612528301118  0.18990565321887895  1.0000
  N   N8        1.0  0.0727801801330399  0.5907561249471351  0.8100943469524854  1.0000
  P   P1        1.0  0.5383693602757679  0.6172088632456462  0.16420690864354764  1.0000
  P   P2        1.0  0.4616306403335098  0.11720886358152219  0.8357930915310946  1.0000
  P   P3        1.0  0.06005985253982762  0.38005838544566695  0.16484269041809108  1.0000
  P   P4        1.0  0.93994014806945  0.8800583851097908  0.8351573097565511  1.0000
  S   S1        1.0  0.8189652940324884  0.5983570389857541  0.666413765395576  1.0000
  S   S2        1.0  0.18103470571550434  0.09835703932163013  0.33358623477578847  1.0000
  S   S3        1.0  0.9444258041142457  0.37625091430030333  0.67150391590211  1.0000
  S   S4        1.0  0.055574195495336716  0.876250914827545  0.3284960837328122  1.0000
  S   S5        1.0  0.9764635317595944  0.6942366560139519  0.5489045989834684  1.0000
  S   S6        1.0  0.02353646798839845  0.19423665634982798  0.4510954011878958  1.0000
  S   S7        1.0  0.09287248098024836  0.466716572854801  0.5517739148852575  1.0000
  S   S8        1.0  0.9071275186293342  0.9667165725189251  0.4482260847496647  1.0000
  S   S9        1.0  0.2610636496991034  0.6351041830508698  0.3868863116904059  1.0000
  S   S10       1.0  0.7389363500488895  0.13510418338674587  0.6131136884809584  1.0000
  S   S11       1.0  0.38358180324231445  0.449595396268661  0.6743028887885291  1.0000
  S   S12       1.0  0.6164181973669631  0.9495953967959027  0.32569711138611324  1.0000
  S   S13       1.0  0.3763025526974954  0.6882513282905474  0.6181449819967796  1.0000
  S   S14       1.0  0.6236974470504976  0.18825132862642335  0.3818550181745847  1.0000
  S   S15       1.0  0.5652682440005304  0.374520134569542  0.5766175022620861  1.0000
  S   S16       1.0  0.4347317557474623  0.8745201342336659  0.42338249790927823  1.0000
  S   S17       1.0  0.5690083604835517  0.6087273585441318  0.5144792111575139  1.0000
  S   S18       1.0  0.43099163926444106  0.10872735888000784  0.4855207890138504  1.0000
  S   S19       1.0  0.8154763481748641  0.42795249532959734  0.4018185846614613  1.0000
  S   S20       1.0  0.18452365143471838  0.9279524949937213  0.598181414973461  1.0000
