data_image0
_chemical_formula_structural       H36C36N8O8I4
_chemical_formula_sum              "H36 C36 N8 O8 I4"
_cell_length_a       6.035799379873101
_cell_length_b       8.420640008463613
_cell_length_c       20.194322779434874
_cell_angle_alpha    90.0
_cell_angle_beta     90.0
_cell_angle_gamma    90.0

_space_group_name_H-M_alt    "P 1"
_space_group_IT_number       1

loop_
  _space_group_symop_operation_xyz
  'x, y, z'

loop_
  _atom_site_type_symbol
  _atom_site_label
  _atom_site_symmetry_multiplicity
  _atom_site_fract_x
  _atom_site_fract_y
  _atom_site_fract_z
  _atom_site_occupancy
  H   H1        1.0  0.1565906734991366  0.4612957668414481  0.4852208349357785  1.0000
  H   H2        1.0  0.34340932651137557  0.5387042333410069  0.9852208349497706  1.0000
  H   H3        1.0  0.8434093265218877  0.9612957663388964  0.014779165078213736  1.0000
  H   H4        1.0  0.6565906735096487  0.038704233843558485  0.514779165092206  1.0000
  H   H5        1.0  0.018528765282180615  0.31958500271893303  0.5355415790923913  1.0000
  H   H6        1.0  0.4814712347283316  0.680414997463522  0.03554157907839906  1.0000
  H   H7        1.0  0.9814712347388438  0.8195850022163814  0.9644584209495854  1.0000
  H   H8        1.0  0.5185287652926928  0.18041499796607352  0.4644584209355932  1.0000
  H   H9        1.0  0.7392313990551832  0.5060260248291332  0.5638315012769464  1.0000
  H   H10       1.0  0.7607686009763532  0.4939739753533218  0.0638315012629541  1.0000
  H   H11       1.0  0.2607686009658411  0.006026025331684772  0.9361684982698417  1.0000
  H   H12       1.0  0.23923139904467106  0.9939739748507701  0.43616849875103814  1.0000
  H   H13       1.0  0.8855529356763305  0.6561697477206523  0.519458830809753  1.0000
  H   H14       1.0  0.614447064355206  0.34383025246180265  0.019458830795760745  1.0000
  H   H15       1.0  0.11444706434469383  0.15616974822320392  0.9805411692322238  1.0000
  H   H16       1.0  0.38555293566581833  0.843830251959251  0.4805411692182315  1.0000
  H   H17       1.0  0.8584346735044952  0.20872176915691204  0.09961349840602549  1.0000
  H   H18       1.0  0.6415653265270413  0.791278231025543  0.5996134984200178  1.0000
  H   H19       1.0  0.1415653265165292  0.7087217686543603  0.40038650160796674  1.0000
  H   H20       1.0  0.358434673493983  0.2912782315280945  0.9003865016219589  1.0000
  H   H21       1.0  0.812648807771196  0.08685290301745599  0.2111331831509587  1.0000
  H   H22       1.0  0.6873511922603405  0.9131470971649989  0.7111331831649509  1.0000
  H   H23       1.0  0.18735119224982832  0.5868529025149044  0.28886681686303356  1.0000
  H   H24       1.0  0.3126488077606839  0.41314709766755053  0.7888668168770258  1.0000
  H   H25       1.0  0.4503038187556762  0.43920975321147787  0.17349760565221828  1.0000
  H   H26       1.0  0.04969618125483594  0.5607902469709771  0.6734976056662105  1.0000
  H   H27       1.0  0.549696181265348  0.9392097527089263  0.3265023943617739  1.0000
  H   H28       1.0  0.9503038187661883  0.06079024747352872  0.8265023943757662  1.0000
  H   H29       1.0  0.18220131763609432  0.392870165055732  0.07999766506877677  1.0000
  H   H30       1.0  0.31779868237441783  0.6071298351267229  0.579997665082769  1.0000
  H   H31       1.0  0.81779868238493  0.8928701657407385  0.42000233494521544  1.0000
  H   H32       1.0  0.6822013176466065  0.10712983444171638  0.9200023349592077  1.0000
  H   H33       1.0  0.08897084482143444  0.15121240888105855  0.30037834228228333  1.0000
  H   H34       1.0  0.4110291551890777  0.8487875913013964  0.8003783422962756  1.0000
  H   H35       1.0  0.9110291551995899  0.6512124095660651  0.19962165773170887  1.0000
  H   H36       1.0  0.5889708448319466  0.3487875906163898  0.6996216577457011  1.0000
  C   C1        1.0  0.9030125120087393  0.33228328454698014  0.43540857527315713  1.0000
  C   C2        1.0  0.5969874880227972  0.6677167144479166  0.9354085752871493  1.0000
  C   C3        1.0  0.09698748801228507  0.8322832852319867  0.06459142474083512  1.0000
  C   C4        1.0  0.4030125119982271  0.16771671495046822  0.5645914247548274  1.0000
  C   C5        1.0  0.9938362795825922  0.41023810737995015  0.4973392012049963  1.0000
  C   C6        1.0  0.5061637204489443  0.5897618928025048  0.9973392012189886  1.0000
  C   C7        1.0  0.0061637204384321605  0.9102381080649566  0.0026607988089959456  1.0000
  C   C8        1.0  0.49383627957208004  0.0897618921174982  0.5026607988229882  1.0000
  C   C9        1.0  0.6473486151692053  0.5254214923750494  0.46271578661284984  1.0000
  C   C10       1.0  0.8526513848623313  0.4745785066198473  0.9627157866268422  1.0000
  C   C11       1.0  0.35265138485181907  0.025421492877601027  0.03728421340114235  1.0000
  C   C12       1.0  0.14734861515869307  0.9745785073048538  0.5372842134151345  1.0000
  C   C13       1.0  0.820824457241016  0.5343055890618581  0.5166574078247935  1.0000
  C   C14       1.0  0.6791755427905204  0.46569441112059684  0.016657407810801248  1.0000
  C   C15       1.0  0.17917554278000822  0.03430558956440968  0.9833425922171833  1.0000
  C   C16       1.0  0.32082445723050396  0.9656944106180453  0.483342592203191  1.0000
  C   C17       1.0  0.9786624154039048  0.23368826811526833  0.13855895493804243  1.0000
  C   C18       1.0  0.5213375846276317  0.7663117320671866  0.6385589549520346  1.0000
  C   C19       1.0  0.02133758461711955  0.7336882676127167  0.3614410450759498  1.0000
  C   C20       1.0  0.4786624153933926  0.2663117325697382  0.8614410450899421  1.0000
  C   C21       1.0  0.952277953300834  0.16466811175947588  0.2008081431742611  1.0000
  C   C22       1.0  0.5477220467307025  0.835331888422979  0.7008081431882534  1.0000
  C   C23       1.0  0.047722046720190335  0.6646681112569243  0.29919185683973115  1.0000
  C   C24       1.0  0.45227795329032183  0.33533188892553073  0.7991918568537234  1.0000
  C   C25       1.0  0.3072869910462455  0.36100564647634714  0.17902996299939178  1.0000
  C   C26       1.0  0.19271300896426663  0.6389943537061077  0.679029963013384  1.0000
  C   C27       1.0  0.6927130089747788  0.8610056459737956  0.3209700370146004  1.0000
  C   C28       1.0  0.8072869910567576  0.1389943542086594  0.8209700370285927  1.0000
  C   C29       1.0  0.15844769347189713  0.33471705086158354  0.1275820748306421  1.0000
  C   C30       1.0  0.34155230653861507  0.6652829481333132  0.6275820748446344  1.0000
  C   C31       1.0  0.8415523065491272  0.83471705154659  0.37241792518335015  1.0000
  C   C32       1.0  0.6584476934824093  0.16528294863586487  0.8724179251973423  1.0000
  C   C33       1.0  0.10606020838510026  0.19733359677291096  0.25017305186113203  1.0000
  C   C34       1.0  0.39393979162541193  0.8026664022219858  0.7501730518751243  1.0000
  C   C35       1.0  0.8939397916359241  0.6973335974579175  0.24982694815286022  1.0000
  C   C36       1.0  0.6060602083956125  0.3026664027245374  0.7498269481668525  1.0000
  N   N1        1.0  0.7113989265975695  0.4124186435365303  0.41672174709269955  1.0000
  N   N2        1.0  0.788601073433967  0.5875813566459247  0.9167217471066919  1.0000
  N   N3        1.0  0.2886010734234548  0.9124186442215368  0.0832782529212927  1.0000
  N   N4        1.0  0.21139892658705733  0.0875813559609181  0.5832782529352849  1.0000
  N   N5        1.0  0.2803431465337364  0.29313420684401964  0.23881700429743066  1.0000
  N   N6        1.0  0.21965685347677577  0.7068657921508771  0.7388170043114229  1.0000
  N   N7        1.0  0.719656853487288  0.7931342075290262  0.26118299571656156  1.0000
  N   N8        1.0  0.7803431465442486  0.20686579265342872  0.7611829957305538  1.0000
  O   O1        1.0  0.4740758033710788  0.6029944309335737  0.45958737420258894  1.0000
  O   O2        1.0  0.025924196639433326  0.39700556924888114  0.9595873742165811  1.0000
  O   O3        1.0  0.5259241966499455  0.10299443024856722  0.040412625811403334  1.0000
  O   O4        1.0  0.974075803381591  0.8970055687463295  0.5404126258253955  1.0000
  O   O5        1.0  0.9801702322525475  0.21676112126458533  0.4061069524129643  1.0000
  O   O6        1.0  0.519829767778989  0.7832388789178696  0.9061069524269566  1.0000
  O   O7        1.0  0.019829767768476822  0.7167611219495919  0.09389304760102787  1.0000
  O   O8        1.0  0.48017023224203537  0.28323887823286303  0.5938930471198315  1.0000
  I   I1        1.0  0.5153527568150215  0.35300429860584326  0.33053116922531395  1.0000
  I   I2        1.0  0.984647243216515  0.6469957015766116  0.8305311692393063  1.0000
  I   I3        1.0  0.48464724320600283  0.8530042981032917  0.16946883078867828  1.0000
  I   I4        1.0  0.015352756804509338  0.14699570207916327  0.6694688308026705  1.0000
