data_image0
_chemical_formula_structural       H16C36N4O2S2Cl2
_chemical_formula_sum              "H16 C36 N4 O2 S2 Cl2"
_cell_length_a       7.91855998821562
_cell_length_b       8.569790278223403
_cell_length_c       10.991679406096653
_cell_angle_alpha    108.04664366033728
_cell_angle_beta     91.9670293057502
_cell_angle_gamma    93.00402902980312

_space_group_name_H-M_alt    "P 1"
_space_group_IT_number       1

loop_
  _space_group_symop_operation_xyz
  'x, y, z'

loop_
  _atom_site_type_symbol
  _atom_site_label
  _atom_site_symmetry_multiplicity
  _atom_site_fract_x
  _atom_site_fract_y
  _atom_site_fract_z
  _atom_site_occupancy
  H   H1        1.0  0.989913569266704  0.7243908649868572  0.10761530681397226  1.0000
  H   H2        1.0  0.010086430349556731  0.275609134501513  0.8923846930239273  1.0000
  H   H3        1.0  0.5488871582981051  0.9364992931658415  0.33220970040894837  1.0000
  H   H4        1.0  0.4511128413764242  0.06350070748673432  0.6677902994184693  1.0000
  H   H5        1.0  0.5284056704670566  0.6852672780919058  0.1493869016738954  1.0000
  H   H6        1.0  0.4715943291492043  0.31473272139646435  0.8506130981640041  1.0000
  H   H7        1.0  0.6952903664022699  0.159733905193388  0.3818042645261952  1.0000
  H   H8        1.0  0.3047096332722593  0.8402660954591877  0.6181957353012225  1.0000
  H   H9        1.0  0.9372253907265995  0.533480431186462  0.7083184768830234  1.0000
  H   H10       1.0  0.06277460901481433  0.4665195698628676  0.29168152390254776  1.0000
  H   H11       1.0  0.6755249855986968  0.4073123082254505  0.5709160947641545  1.0000
  H   H12       1.0  0.3244750140175642  0.5926876912629195  0.42908390507374494  1.0000
  H   H13       1.0  0.2130063996747487  0.4148421117141757  0.6524176165634893  1.0000
  H   H14       1.0  0.7869936000666651  0.5851578893351541  0.3475823842220818  1.0000
  H   H15       1.0  0.22353905160377605  0.8615437572305136  0.8926498618281609  1.0000
  H   H16       1.0  0.7764609480124848  0.13845624225785647  0.10735013800973861  1.0000
  C   C1        1.0  0.9601896867478551  0.9921480956990313  0.2999673678288604  1.0000
  C   C2        1.0  0.039810314131685474  0.00785190379643211  0.7000326320099419  1.0000
  C   C3        1.0  0.11216223716624771  0.769506930550792  0.15734005407915858  1.0000
  C   C4        1.0  0.8878377625168978  0.23049306933433214  0.8426599467168944  1.0000
  C   C5        1.0  0.12017289784455894  0.9134911913542973  0.2636132488732756  1.0000
  C   C6        1.0  0.8798271018299703  0.08650880929827834  0.7363867509541421  1.0000
  C   C7        1.0  0.42506169232302315  0.890709705956815  0.28461427825018676  1.0000
  C   C8        1.0  0.574938307351506  0.1092902946957607  0.7153857215772309  1.0000
  C   C9        1.0  0.4147401726452305  0.7486215656419919  0.18099490773944193  1.0000
  C   C10       1.0  0.5852598282343101  0.2513784338534714  0.8190050920993605  1.0000
  C   C11       1.0  0.9617654054687381  0.1430512983883699  0.41010646751462343  1.0000
  C   C12       1.0  0.038234594147522706  0.8569487011000002  0.5898935323232761  1.0000
  C   C13       1.0  0.2789924817353344  0.9745020057600942  0.3274054095876934  1.0000
  C   C14       1.0  0.7210075178809263  0.025497993728275936  0.6725945902502062  1.0000
  C   C15       1.0  0.8072869440594977  0.21619249076605335  0.44276351355700627  1.0000
  C   C16       1.0  0.1927130568783112  0.7838075098936155  0.5572364862713142  1.0000
  C   C17       1.0  0.2567951397353053  0.689244584503829  0.11727161631314133  1.0000
  C   C18       1.0  0.7432048599392239  0.31075541614874685  0.8827283835142764  1.0000
  C   C19       1.0  0.9435201342400025  0.4249629224964361  0.6248989910484227  1.0000
  C   C20       1.0  0.05647986544314317  0.5750370773886881  0.37510100974763033  1.0000
  C   C21       1.0  0.10882251779390367  0.21837488576013075  0.48686471651430613  1.0000
  C   C22       1.0  0.8911774818223573  0.7816251137282394  0.5131352833235935  1.0000
  C   C23       1.0  0.7968358040294963  0.3542143942090643  0.54788130781975  1.0000
  C   C24       1.0  0.20316419565364915  0.6457856056760598  0.45211869297630297  1.0000
  C   C25       1.0  0.09828645080448613  0.35867686291151923  0.5942920970116199  1.0000
  C   C26       1.0  0.9017135488117749  0.6413231365768509  0.40570790282627966  1.0000
  C   C27       1.0  0.49649228728616734  0.8507581541574927  0.9007220699850463  1.0000
  C   C28       1.0  0.5035077135933733  0.14924184533797058  0.09927792985375591  1.0000
  C   C29       1.0  0.6527041626665854  0.9290594401319274  0.9622455281598632  1.0000
  C   C30       1.0  0.34729583700794386  0.07094056052064843  0.03775447166755442  1.0000
  C   C31       1.0  0.8070074950058403  0.8563789817304588  0.9217558828343821  1.0000
  C   C32       1.0  0.19299250466868892  0.14362101892211687  0.07824411699303555  1.0000
  C   C33       1.0  0.4933971140602116  0.6995762622224628  0.7991542579497732  1.0000
  C   C34       1.0  0.5066028855560493  0.3004237372659074  0.2008457418881264  1.0000
  C   C35       1.0  0.3439703570941487  0.9216793128945273  0.9387320753456789  1.0000
  C   C36       1.0  0.6560296425803805  0.0783206877580484  0.06126792448173879  1.0000
  N   N1        1.0  0.9325181120217404  0.7963043757565621  0.8863107333941616  1.0000
  N   N2        1.0  0.06748188891606843  0.20369562490310678  0.11368926643415897  1.0000
  N   N3        1.0  0.4893883446328824  0.5765635745940573  0.7147450518620367  1.0000
  N   N4        1.0  0.5106116549833785  0.4234364248943128  0.28525494797586276  1.0000
  O   O1        1.0  0.8250782640239738  0.9298561411816736  0.2376504123729657  1.0000
  O   O2        1.0  0.17492173685556686  0.07014385831378975  0.7623495874658366  1.0000
  S   S1        1.0  0.31044531754796434  0.14988643062774606  0.45837839119834767  1.0000
  S   S2        1.0  0.6895546820682966  0.8501135688606241  0.5416216086395519  1.0000
  Cl  Cl1       1.0  0.24456372837486728  0.5150595231112725  0.9837557266614582  1.0000
  Cl  Cl2       1.0  0.7554362712413936  0.4849404763770977  0.016244273176441375  1.0000
