data_image0
_chemical_formula_structural       H36C36N8O8S4Cl4
_chemical_formula_sum              "H36 C36 N8 O8 S4 Cl4"
_cell_length_a       7.971508317143414
_cell_length_b       9.44219730681347
_cell_length_c       14.640739959072446
_cell_angle_alpha    81.97590615363808
_cell_angle_beta     84.6961537284166
_cell_angle_gamma    73.71735403580631

_space_group_name_H-M_alt    "P 1"
_space_group_IT_number       1

loop_
  _space_group_symop_operation_xyz
  'x, y, z'

loop_
  _atom_site_type_symbol
  _atom_site_label
  _atom_site_symmetry_multiplicity
  _atom_site_fract_x
  _atom_site_fract_y
  _atom_site_fract_z
  _atom_site_occupancy
  H   H1        1.0  0.6453097965283751  0.02246424158612769  0.026999498629167805  1.0000
  H   H2        1.0  0.35469020421448605  0.9775357587053264  0.9730005017323553  1.0000
  H   H3        1.0  0.8072783214515616  0.2989962151603082  0.890210340043928  1.0000
  H   H4        1.0  0.19272167936244575  0.7010037852639392  0.10978965962673015  1.0000
  H   H5        1.0  0.43374863325960233  0.4461880468507437  0.9262707192968401  1.0000
  H   H6        1.0  0.5662513666692126  0.5538119524680424  0.0737292803745428  1.0000
  H   H7        1.0  0.06360092396056277  0.3377135618443812  0.9939095245068371  1.0000
  H   H8        1.0  0.9363990755995237  0.6622864385776563  0.006090475164945469  1.0000
  H   H9        1.0  0.9200535834567035  0.04248697886246596  0.2542746923317422  1.0000
  H   H10       1.0  0.07994641647211138  0.9575130204563201  0.7457253073396406  1.0000
  H   H11       1.0  0.8944754139049143  0.22759740935903364  0.19474758824299937  1.0000
  H   H12       1.0  0.10552458565517214  0.7724025910630039  0.8052524114287832  1.0000
  H   H13       1.0  0.07121656759983294  0.07847300856756036  0.15990026165508778  1.0000
  H   H14       1.0  0.9287834319602536  0.9215269918544772  0.8400997380166948  1.0000
  H   H15       1.0  0.8738567474633869  0.2907725996079985  0.6981810734440987  1.0000
  H   H16       1.0  0.1261432520966996  0.709227400814039  0.30181892622768386  1.0000
  H   H17       1.0  0.7538462108859253  0.44563311999577726  0.5547604593080966  1.0000
  H   H18       1.0  0.24615378985693567  0.5543668802956768  0.4452395410534264  1.0000
  H   H19       1.0  0.4450683790745472  0.6038456219911901  0.5580319430872485  1.0000
  H   H20       1.0  0.5549316221081886  0.396154377329806  0.4419680565830099  1.0000
  H   H21       1.0  0.26099332388399105  0.6107719252722977  0.705227700307562  1.0000
  H   H22       1.0  0.7390066756760955  0.3892280751497398  0.2947722993642205  1.0000
  H   H23       1.0  0.2574095542152211  0.18969073134018286  0.2597891392091326  1.0000
  H   H24       1.0  0.7425904457135938  0.8103092679786034  0.7402108604622503  1.0000
  H   H25       1.0  0.3053229534298525  0.3665068351240643  0.23129838738847688  1.0000
  H   H26       1.0  0.694677047681737  0.6334931640641385  0.7687016129726464  1.0000
  H   H27       1.0  0.4553959863972899  0.20217362145808085  0.1924998779018482  1.0000
  H   H28       1.0  0.5446040134603786  0.7978263777279118  0.8075001224603997  1.0000
  H   H29       1.0  0.3840403942425692  0.8476455868665073  0.5539431896779745  1.0000
  H   H30       1.0  0.6159596052463708  0.15235441342273673  0.446056810684673  1.0000
  H   H31       1.0  0.44507490192136784  0.964815187432259  0.6852444410775478  1.0000
  H   H32       1.0  0.5549250992613681  0.03518481188873709  0.31475555859271054  1.0000
  H   H33       1.0  0.31604113957065644  0.2362687114818423  0.6925532703044116  1.0000
  H   H34       1.0  0.6839588603581584  0.7637312878369438  0.30744672936697126  1.0000
  H   H35       1.0  0.12411666610451433  0.3878310827479825  0.5699335410649099  1.0000
  H   H36       1.0  0.8758833337531543  0.6121689164380101  0.4300664592973379  1.0000
  C   C1        1.0  0.9352701101525335  0.10828339889920229  0.18801016427943942  1.0000
  C   C2        1.0  0.06472989066147407  0.8917166015250453  0.8119898353912186  1.0000
  C   C3        1.0  0.811904926885693  0.14783717212408667  0.0428185224901419  1.0000
  C   C4        1.0  0.18809507304312192  0.8521628271946995  0.9571814771812409  1.0000
  C   C5        1.0  0.6454540520426176  0.1615520540526157  0.9061311304289336  1.0000
  C   C6        1.0  0.3545459475174689  0.8384479463694218  0.09386886924284903  1.0000
  C   C7        1.0  0.6353561907511228  0.3616312030620813  0.7805527784318271  1.0000
  C   C8        1.0  0.36464380880896363  0.638368797359956  0.21944722123995555  1.0000
  C   C9        1.0  0.7397278641578785  0.36130742321525156  0.6986262930126423  1.0000
  C   C10       1.0  0.2602721356997901  0.638692575970741  0.30137370734960545  1.0000
  C   C11       1.0  0.6716803986601412  0.44822098428451357  0.6184883178951576  1.0000
  C   C12       1.0  0.3283196012686737  0.5517790150342727  0.3815116817762254  1.0000
  C   C13       1.0  0.4990527334788288  0.5366069451391072  0.620621231782339  1.0000
  C   C14       1.0  0.5009472672640323  0.46339305515234674  0.3793787685791841  1.0000
  C   C15       1.0  0.394515975581882  0.5398511662831759  0.7026573844931765  1.0000
  C   C16       1.0  0.6054840239070581  0.46014883400606815  0.297342615869471  1.0000
  C   C17       1.0  0.46117901187548005  0.4527987150172229  0.7832926006934531  1.0000
  C   C18       1.0  0.5388209876846064  0.5472012854048146  0.2167073989783295  1.0000
  C   C19       1.0  0.21104072596073004  0.4171821133836466  0.8872454827140682  1.0000
  C   C20       1.0  0.7889592735993566  0.5828178870383908  0.1127545169577143  1.0000
  C   C21       1.0  0.28365002356665353  0.3491121335385993  0.051534872818425344  1.0000
  C   C22       1.0  0.7163499759222866  0.6508878667506448  0.9484651275442222  1.0000
  C   C23       1.0  0.3175310040206271  0.25839525090168286  0.20805759588571113  1.0000
  C   C24       1.0  0.6824689955394595  0.7416047495203545  0.7919424037860715  1.0000
  C   C25       1.0  0.22130300993163932  0.051060051856154115  0.48899936193208665  1.0000
  C   C26       1.0  0.7786969896284471  0.9489399485658834  0.511000637739696  1.0000
  C   C27       1.0  0.3269859461387962  0.9655851556066771  0.5587730814581576  1.0000
  C   C28       1.0  0.673014053350144  0.03441484468256706  0.4412269189044899  1.0000
  C   C29       1.0  0.3608648288636381  0.03168958799935403  0.6317815707607566  1.0000
  C   C30       1.0  0.6391351718792229  0.9683104122920999  0.36821842960076656  1.0000
  C   C31       1.0  0.28981509046205295  0.18381332737393424  0.635723733621163  1.0000
  C   C32       1.0  0.7101849093956156  0.8161866718120582  0.3642762667410849  1.0000
  C   C33       1.0  0.18260031461535423  0.2693786102148397  0.56693105025258  1.0000
  C   C34       1.0  0.8173996848735858  0.7306213900744043  0.4330689501100677  1.0000
  C   C35       1.0  0.14781637898143166  0.20356916737473663  0.49354618669236017  1.0000
  C   C36       1.0  0.8521836209473831  0.7964308319440496  0.5064538129790227  1.0000
  N   N1        1.0  0.7080137084255396  0.09843979276007883  0.9917267764061604  1.0000
  N   N2        1.0  0.2919862910634005  0.9015602075291651  0.00827322395648703  1.0000
  N   N3        1.0  0.7068565102123437  0.27361807749160577  0.8620691722485496  1.0000
  N   N4        1.0  0.2931434896453248  0.7263819216943868  0.13793082811369817  1.0000
  N   N5        1.0  0.36427611027678375  0.45379733723264465  0.8687644522955431  1.0000
  N   N6        1.0  0.6357238908348057  0.5462026619555581  0.13123554806558016  1.0000
  N   N7        1.0  0.17415470673032904  0.37408426314406384  0.9799849152105206  1.0000
  N   N8        1.0  0.825845292758611  0.6259157371451801  0.020015085152126893  1.0000
  O   O1        1.0  0.8861627657431133  0.24521564821354147  0.014544340699384558  1.0000
  O   O2        1.0  0.11383723536847613  0.7547843509746613  0.9854556596617388  1.0000
  O   O3        1.0  0.8224120072679711  0.07232707939181503  0.12789435164096874  1.0000
  O   O4        1.0  0.17758799222096897  0.927672920897429  0.8721056487216787  1.0000
  O   O5        1.0  0.4214067120399232  0.3854541742294228  0.048262441004739316  1.0000
  O   O6        1.0  0.5785932887029379  0.6145458260620312  0.9517375593567838  1.0000
  O   O7        1.0  0.21961564555477384  0.27864729571891117  0.1266360898122077  1.0000
  O   O8        1.0  0.7803843540053127  0.7213527047031263  0.8733639098595749  1.0000
  S   S1        1.0  0.4997893886099067  0.09528209489822982  0.8627629390073558  1.0000
  S   S2        1.0  0.5002106108790334  0.9047179053910143  0.13723706135529176  1.0000
  S   S3        1.0  0.06925900490353842  0.418078692752019  0.8101898615363557  1.0000
  S   S4        1.0  0.9307409946565481  0.5819213076700185  0.18981013813542683  1.0000
  Cl  Cl1       1.0  0.18711373947893672  0.9658631034097713  0.3982300641307498  1.0000
  Cl  Cl2       1.0  0.8128862600811497  0.03413689701226628  0.6017699355410326  1.0000
  Cl  Cl3       1.0  0.013740179355658707  0.3127468157249681  0.40942502595051833  1.0000
  Cl  Cl4       1.0  0.9862598201332812  0.6872531845642761  0.5905749744121292  1.0000
