data_image0
_chemical_formula_structural       H30C30N4O8
_chemical_formula_sum              "H30 C30 N4 O8"
_cell_length_a       8.069942756666995
_cell_length_b       10.120332197955923
_cell_length_c       10.353804505952013
_cell_angle_alpha    110.89682379449336
_cell_angle_beta     111.09895459606827
_cell_angle_gamma    98.04312768229272

_space_group_name_H-M_alt    "P 1"
_space_group_IT_number       1

loop_
  _space_group_symop_operation_xyz
  'x, y, z'

loop_
  _atom_site_type_symbol
  _atom_site_label
  _atom_site_symmetry_multiplicity
  _atom_site_fract_x
  _atom_site_fract_y
  _atom_site_fract_z
  _atom_site_occupancy
  H   H1        1.0  0.6177243882856409  0.32769571454155205  0.3558634920515255  1.0000
  H   H2        1.0  0.3822756113447274  0.6723042851581651  0.6441365076034486  1.0000
  H   H3        1.0  0.14867556060079923  0.4878320038081844  0.2119441920499563  1.0000
  H   H4        1.0  0.8513244394543328  0.5121679970101184  0.7880558090739467  1.0000
  H   H5        1.0  0.7286990139241337  0.24558942901505565  0.538221155866512  1.0000
  H   H6        1.0  0.2713009857062346  0.7544105706846616  0.4617788437884623  1.0000
  H   H7        1.0  0.6552929220235894  0.05438365242365263  0.4999308403963635  1.0000
  H   H8        1.0  0.3447070793596371  0.9456163483939684  0.5000691601342114  1.0000
  H   H9        1.0  0.6400244940022356  0.1011867537682712  0.34501759825917544  1.0000
  H   H10       1.0  0.35997550695874697  0.8988132459377222  0.6549824017714132  1.0000
  H   H11       1.0  0.05343427998773865  0.2937311314789657  0.5468268854282338  1.0000
  H   H12       1.0  0.9465657196426296  0.7062688682207514  0.4531731142267405  1.0000
  H   H13       1.0  0.9909580239777143  0.10918245352399439  0.5291800199624949  1.0000
  H   H14       1.0  0.009041976074897777  0.8908175472873502  0.47081998019246557  1.0000
  H   H15       1.0  0.23215254870042595  0.21471170222297617  0.616318888710708  1.0000
  H   H16       1.0  0.7678474509299423  0.7852882974767409  0.3836811109442663  1.0000
  H   H17       1.0  0.8462262213607862  0.3638674291953255  0.08412477321414585  1.0000
  H   H18       1.0  0.15377377826958194  0.6361325705043915  0.9158752264408282  1.0000
  H   H19       1.0  0.6966967165696177  0.36145733562738797  0.176562557541972  1.0000
  H   H20       1.0  0.303303284393885  0.6385426640855639  0.8234374434575593  1.0000
  H   H21       1.0  0.907600370179767  0.5125057222434115  0.2674726057370672  1.0000
  H   H22       1.0  0.0923996294506012  0.4874942774563055  0.7325273939179071  1.0000
  H   H23       1.0  0.3801226840677237  0.6718420309122466  0.24603809533520354  1.0000
  H   H24       1.0  0.6198773155626445  0.32815796878747056  0.7539619043197706  1.0000
  H   H25       1.0  0.5180142488870559  0.6371561496252258  0.1427667744165466  1.0000
  H   H26       1.0  0.4819857524961704  0.3628438511923952  0.8572332261140284  1.0000
  H   H27       1.0  0.28785301912412353  0.5121107850230417  0.062173828379918354  1.0000
  H   H28       1.0  0.7121469805062446  0.48788921467667523  0.9378261712750559  1.0000
  H   H29       1.0  0.27905776468459154  0.912213545654672  0.07130190753335722  1.0000
  H   H30       1.0  0.7209422349457767  0.08778645404504506  0.9286980921216169  1.0000
  C   C1        1.0  0.4755037088333838  0.32315590654328774  0.33749978890284854  1.0000
  C   C2        1.0  0.5244962921275989  0.6768440931627059  0.6625002111277402  1.0000
  C   C3        1.0  0.3743700380195134  0.23005496741438097  0.3738020725746259  1.0000
  C   C4        1.0  0.6256299620356187  0.7699450334039218  0.6261979285492771  1.0000
  C   C5        1.0  0.19064323661771884  0.22698525446901033  0.3505193855392658  1.0000
  C   C6        1.0  0.8093567630126495  0.7730147452307069  0.6494806141157083  1.0000
  C   C7        1.0  0.11103240235773493  0.3206244934872976  0.2923405559042037  1.0000
  C   C8        1.0  0.8889675972726334  0.6793755062124196  0.7076594437507705  1.0000
  C   C9        1.0  0.21125671442707047  0.41533448844056803  0.2560512255902213  1.0000
  C   C10       1.0  0.7887432852032978  0.5846655112591491  0.7439487740647528  1.0000
  C   C11       1.0  0.3924190860463841  0.4145604177172038  0.27831943681226035  1.0000
  C   C12       1.0  0.6075809140062278  0.5854395830941407  0.7216805633426999  1.0000
  C   C13       1.0  0.6280901316125101  0.1352508901010221  0.45394115308580957  1.0000
  C   C14       1.0  0.3719098680203781  0.8647491096056533  0.5460588475381072  1.0000
  C   C15       1.0  0.09206109389777313  0.1909219824859594  0.5264828083491392  1.0000
  C   C16       1.0  0.9079389057325951  0.8090780172137577  0.473517191305835  1.0000
  C   C17       1.0  0.841385988149194  0.39227354010431703  0.19546900777975898  1.0000
  C   C18       1.0  0.1586140114836943  0.6077264596023584  0.804530992844158  1.0000
  C   C19       1.0  0.4148200806456339  0.5848842639228927  0.1695246332812042  1.0000
  C   C20       1.0  0.5851799189847343  0.4151157357768245  0.83047536637377  1.0000
  C   C21       1.0  0.1573196789883325  0.9505812147717034  0.04060993648560468  1.0000
  C   C22       1.0  0.8426803206420356  0.049418784928013416  0.9593900631693695  1.0000
  C   C23       1.0  0.15160937537865404  0.049076462558376964  0.9740466790211192  1.0000
  C   C24       1.0  0.848390624673958  0.9509235382529676  0.025953321133841193  1.0000
  C   C25       1.0  0.9937605204545482  0.09976166018423022  0.9345865339818816  1.0000
  C   C26       1.0  0.0062394805064343965  0.9002383395217635  0.06541346604870708  1.0000
  C   C27       1.0  0.30195136847469317  0.0935658106879209  0.9422707159708432  1.0000
  C   C28       1.0  0.6980486311556751  0.9064341890117962  0.05772928368413091  1.0000
  C   C29       1.0  0.987499909321321  0.2021535704087389  0.869355389134795  1.0000
  C   C30       1.0  0.012500090309047212  0.7978464292909783  0.13064461052017917  1.0000
  N   N1        1.0  0.42454444977043343  0.12652147300527378  0.913876500100002  1.0000
  N   N2        1.0  0.5754555498624547  0.8734785267014016  0.08612350052391479  1.0000
  N   N3        1.0  0.9829590397506228  0.2891740530862857  0.8195747713386962  1.0000
  N   N4        1.0  0.017040959879745278  0.7108259466134313  0.1804252283162781  1.0000
  O   O1        1.0  0.44140967470469306  0.13541090445108167  0.42962515186324146  1.0000
  O   O2        1.0  0.5585903249256753  0.8645890952486355  0.5703748477917329  1.0000
  O   O3        1.0  0.08630957845644774  0.12733507777270478  0.3759893131358933  1.0000
  O   O4        1.0  0.9136904211739205  0.8726649219270123  0.6240106865190809  1.0000
  O   O5        1.0  0.931407674794286  0.3096045222158323  0.27019584324137175  1.0000
  O   O6        1.0  0.06859232616669672  0.6903954774901613  0.729804156789217  1.0000
  O   O7        1.0  0.5000487366208191  0.5005173753708434  0.24388361334625025  1.0000
  O   O8        1.0  0.4999512630095492  0.4994826243288738  0.7561163863087239  1.0000
