data_image0
_chemical_formula_structural       H144C88N4F16Cl4I8
_chemical_formula_sum              "H144 C88 N4 F16 Cl4 I8"
_cell_length_a       8.999750360192039
_cell_length_b       13.924600305872987
_cell_length_c       21.577314559309926
_cell_angle_alpha    90.0
_cell_angle_beta     94.63417109780761
_cell_angle_gamma    90.0

_space_group_name_H-M_alt    "P 1"
_space_group_IT_number       1

loop_
  _space_group_symop_operation_xyz
  'x, y, z'

loop_
  _atom_site_type_symbol
  _atom_site_label
  _atom_site_symmetry_multiplicity
  _atom_site_fract_x
  _atom_site_fract_y
  _atom_site_fract_z
  _atom_site_occupancy
  H   H1        1.0  0.7125869823135637  0.8650051732486594  0.38685499075259844  1.0000
  H   H2        1.0  0.28741301738390745  0.36500517345954475  0.11314500920597632  1.0000
  H   H3        1.0  0.28741301752109877  0.1349948270477234  0.6131450089017442  1.0000
  H   H4        1.0  0.7125869825429683  0.634994826836838  0.8868549909133351  1.0000
  H   H5        1.0  0.6310036917981502  0.9454685083095187  0.33038909373049186  1.0000
  H   H6        1.0  0.36899630901028674  0.4454685085204039  0.16961090622718483  1.0000
  H   H7        1.0  0.36899630812872547  0.05453149126871076  0.6696109063888196  1.0000
  H   H8        1.0  0.6310036908243758  0.5545314910578254  0.8303890934271578  1.0000
  H   H9        1.0  0.9562341070103154  0.9504058428462236  0.38710394790223385  1.0000
  H   H10       1.0  0.04376589379812157  0.45040584305710896  0.11289605205544286  1.0000
  H   H11       1.0  0.04376589291656026  0.04959415745015921  0.6128960522170777  1.0000
  H   H12       1.0  0.9562341072397201  0.5495941572392739  0.8871039480629708  1.0000
  H   H13       1.0  0.8855853511106762  0.028193413913246788  0.32780024225014326  1.0000
  H   H14       1.0  0.11441464858679497  0.5281934144205149  0.1721997577084315  1.0000
  H   H15       1.0  0.11441464881619956  0.9718065856649827  0.6721997578691682  1.0000
  H   H16       1.0  0.8855853513400809  0.4718065858758679  0.82780024241088  1.0000
  H   H17       1.0  0.7608707592500036  0.010419473220987647  0.45560742950220395  1.0000
  H   H18       1.0  0.23912924155843351  0.5104194737282558  0.044392570455472784  1.0000
  H   H19       1.0  0.2391292405846589  0.9895805263572417  0.5443925701521387  1.0000
  H   H20       1.0  0.7608707594794082  0.489580526568127  0.9556074296629408  1.0000
  H   H21       1.0  0.697648913184156  0.09141087442654604  0.3965909204920288  1.0000
  H   H22       1.0  0.30235108762428115  0.5914108749338142  0.10340907946564794  1.0000
  H   H23       1.0  0.30235108776147246  0.9085891251516833  0.6034090791614158  1.0000
  H   H24       1.0  0.6976489123025946  0.40858912536256864  0.8965909206536634  1.0000
  H   H25       1.0  0.8724879526787587  0.17245296793094922  0.4756246029905791  1.0000
  H   H26       1.0  0.1275120470187124  0.6724529677200639  0.0243753969679956  1.0000
  H   H27       1.0  0.12751204724811702  0.8275470323654336  0.5243753971287324  1.0000
  H   H28       1.0  0.8724879529081633  0.32754703185816547  0.9756246031513158  1.0000
  H   H29       1.0  0.9538160586134902  0.1690204105181637  0.40322085684146364  1.0000
  H   H30       1.0  0.04618394219494698  0.6690204103072784  0.09677914311621305  1.0000
  H   H31       1.0  0.046183941313385685  0.8309795897782191  0.5967791432778479  1.0000
  H   H32       1.0  0.9538160588428947  0.33097958927095095  0.9032208570022003  1.0000
  H   H33       1.0  0.0145854527487013  0.08743611545435089  0.46284151645309635  1.0000
  H   H34       1.0  0.98541454694877  0.5874361152434655  0.037158483505478374  1.0000
  H   H35       1.0  0.9854145471781744  0.912563884842032  0.5371584836662151  1.0000
  H   H36       1.0  0.01458545288589267  0.4125638850529173  0.9628415161488643  1.0000
  H   H37       1.0  0.8634023863949662  0.9575346169452642  0.24630709516350754  1.0000
  H   H38       1.0  0.13659761450568408  0.4575346171561495  0.253692905259138  1.0000
  H   H39       1.0  0.13659761353190952  0.04246538263296515  0.7536929049558041  1.0000
  H   H40       1.0  0.8634023865321576  0.5424653831402333  0.7463070948592754  1.0000
  H   H41       1.0  0.6705395479580403  0.9326830734611724  0.2279483629903613  1.0000
  H   H42       1.0  0.3294604528503967  0.43268307367205777  0.2720516369673154  1.0000
  H   H43       1.0  0.3294604529875881  0.06731692611705692  0.7720516366630833  1.0000
  H   H44       1.0  0.6705395470764791  0.5673169259061716  0.7279483631519962  1.0000
  H   H45       1.0  0.7517204605761759  0.7809123350861075  0.1706399438748398  1.0000
  H   H46       1.0  0.24827953921350845  0.2809123352969927  0.32936005654870376  1.0000
  H   H47       1.0  0.24827953935069982  0.21908766521027545  0.8293600562444717  1.0000
  H   H48       1.0  0.7517204607133673  0.7190876649993901  0.6706399435706077  1.0000
  H   H49       1.0  0.9389688490891347  0.8181130524224263  0.18780444317501394  1.0000
  H   H50       1.0  0.06103115060833645  0.3181130519151581  0.3121955567835608  1.0000
  H   H51       1.0  0.06103115083774102  0.18188694787395657  0.8121955569442975  1.0000
  H   H52       1.0  0.9389688492263262  0.6818869476630712  0.6878044428707818  1.0000
  H   H53       1.0  0.6965720496933328  0.9347569592004866  0.11429424467311043  1.0000
  H   H54       1.0  0.3034279500041384  0.434756959411372  0.3857057552854643  1.0000
  H   H55       1.0  0.3034279501413297  0.06524304037774273  0.8857057549812322  1.0000
  H   H56       1.0  0.6965720499227374  0.5652430408850109  0.6142942448338472  1.0000
  H   H57       1.0  0.8782438269206874  0.9766747297058144  0.13628271065870232  1.0000
  H   H58       1.0  0.12175617388774963  0.47667472919854625  0.3637172892989744  1.0000
  H   H59       1.0  0.12175617402494097  0.023325270590568478  0.8637172889947422  1.0000
  H   H60       1.0  0.8782438260391261  0.5233252703796832  0.636282710820337  1.0000
  H   H61       1.0  0.859071688264712  0.9146431315969846  0.02665002502823702  1.0000
  H   H62       1.0  0.14092831143275922  0.41464313180787  0.47334997493033776  1.0000
  H   H63       1.0  0.14092831166216382  0.08535686798124469  0.9733499750910746  1.0000
  H   H64       1.0  0.8590716884941165  0.5853568684885129  0.5266500251889737  1.0000
  H   H65       1.0  0.81013343113586  0.7991957202036408  0.05334246201953366  1.0000
  H   H66       1.0  0.18986656856161122  0.2991957196963727  0.44665753793904106  1.0000
  H   H67       1.0  0.18986656879101582  0.20080428009274198  0.9466575380997779  1.0000
  H   H68       1.0  0.8101334313652645  0.7008042798818567  0.5533424621802704  1.0000
  H   H69       1.0  0.9895921820650564  0.8480004689987191  0.07497690332607927  1.0000
  H   H70       1.0  0.010407818743380808  0.34800046920960437  0.42502309663159743  1.0000
  H   H71       1.0  0.010407817861819484  0.15199953057951032  0.9250230967932322  1.0000
  H   H72       1.0  0.9895921810912818  0.6519995310867784  0.5749769030227452  1.0000
  H   H73       1.0  0.7129289422363473  0.7057813563133266  0.26269361042042744  1.0000
  H   H74       1.0  0.28707105746112377  0.20578135652421195  0.2373063895381473  1.0000
  H   H75       1.0  0.2870710576905284  0.2942186439830562  0.737306389698884  1.0000
  H   H76       1.0  0.7129289423735388  0.7942186437721709  0.7626936101161953  1.0000
  H   H77       1.0  0.6507817302386205  0.7349147332928367  0.33595181744700364  1.0000
  H   H78       1.0  0.3492182705698165  0.23491473350372208  0.1640481825106731  1.0000
  H   H79       1.0  0.34921826968825526  0.2650852662853926  0.6640481826723079  1.0000
  H   H80       1.0  0.6507817304680251  0.7650852667926608  0.8359518176077403  1.0000
  H   H81       1.0  0.5197070334277322  0.812674584650532  0.20978542281523918  1.0000
  H   H82       1.0  0.48029296626973905  0.31267458414326377  0.2902145771433356  1.0000
  H   H83       1.0  0.48029296649914355  0.18732541564585092  0.7902145773040724  1.0000
  H   H84       1.0  0.5197070336571368  0.6873254154349656  0.7097854229759759  1.0000
  H   H85       1.0  0.4640314996910487  0.8533685799935081  0.2820500445335303  1.0000
  H   H86       1.0  0.5359685000064224  0.35336858020439343  0.21794995542504447  1.0000
  H   H87       1.0  0.535968500235827  0.14663141958472126  0.7179499555857812  1.0000
  H   H88       1.0  0.46403149992045334  0.6466314200919894  0.7820500446942671  1.0000
  H   H89       1.0  0.38585720393790995  0.6888959775710131  0.3084916306781797  1.0000
  H   H90       1.0  0.6141427958517744  0.18889597706374497  0.19150836974536392  1.0000
  H   H91       1.0  0.6141427959889658  0.3111040227253697  0.6915083694411317  1.0000
  H   H92       1.0  0.38585720407510127  0.8111040225144844  0.8084916303739476  1.0000
  H   H93       1.0  0.4513165050791895  0.6432302718392798  0.23942735352436997  1.0000
  H   H94       1.0  0.5486834946182816  0.14323027205016509  0.2605726464342048  1.0000
  H   H95       1.0  0.5486834947554731  0.3567697277389496  0.7605726461299728  1.0000
  H   H96       1.0  0.4513165053085942  0.8567697275280644  0.7394273536851067  1.0000
  H   H97       1.0  0.171155912666629  0.6734211556539261  0.22829446195321673  1.0000
  H   H98       1.0  0.8288440870308422  0.17342115514665793  0.271705538005358  1.0000
  H   H99       1.0  0.8288440871680336  0.32657884464245673  0.7717055377011258  1.0000
  H   H100      1.0  0.17115591289603357  0.8265788444315715  0.7282944621139534  1.0000
  H   H101      1.0  0.2666596195838058  0.7443535471268372  0.1753236679439405  1.0000
  H   H102      1.0  0.7333403802058787  0.244353546619569  0.32467633247960315  1.0000
  H   H103      1.0  0.7333403803430699  0.25564645316954565  0.8246763321753711  1.0000
  H   H104      1.0  0.26665961972099717  0.7556464529586603  0.6753236676397083  1.0000
  H   H105      1.0  0.20589423040774846  0.797443040811493  0.2432935086686775  1.0000
  H   H106      1.0  0.7941057692897227  0.2974430410223783  0.25670649128989725  1.0000
  H   H107      1.0  0.7941057695191274  0.2025569594848899  0.7567064914506342  1.0000
  H   H108      1.0  0.20589423054493983  0.7025569592740046  0.7432935083644454  1.0000
  H   H109      1.0  0.9446766934406562  0.7459667388527443  0.2761474157531111  1.0000
  H   H110      1.0  0.05532330634902806  0.24596673834547628  0.22385258467043262  1.0000
  H   H111      1.0  0.05532330648621939  0.2540332614436384  0.7238525843662005  1.0000
  H   H112      1.0  0.9446766935778477  0.7540332612327532  0.7761474154488789  1.0000
  H   H113      1.0  0.01088981044103634  0.8570857760970235  0.3086639988413946  1.0000
  H   H114      1.0  0.9891101892564347  0.35708577558975535  0.19133600111718013  1.0000
  H   H115      1.0  0.9891101894858394  0.14291422419935937  0.6913360012779168  1.0000
  H   H116      1.0  0.010889810670440902  0.642914223988474  0.8086639990021313  1.0000
  H   H117      1.0  0.8653619120292464  0.6931095836143588  0.3788336144843017  1.0000
  H   H118      1.0  0.13463808877919067  0.19310958382524415  0.12116638547337504  1.0000
  H   H119      1.0  0.1346380890085953  0.30689041596387057  0.6211663856341119  1.0000
  H   H120      1.0  0.865361911147685  0.8068904164711387  0.8788336146459366  1.0000
  H   H121      1.0  0.9396668651580986  0.7997641228741765  0.4139837200041478  1.0000
  H   H122      1.0  0.060333134539372404  0.29976412308506184  0.08601627995442691  1.0000
  H   H123      1.0  0.06033313476877702  0.20023587670405285  0.5860162801151637  1.0000
  H   H124      1.0  0.9396668652952902  0.700235877211321  0.9139837196999157  1.0000
  H   H125      1.0  0.11412108047055547  0.6542786212798819  0.34206810682667155  1.0000
  H   H126      1.0  0.8858789192269156  0.15427862077261376  0.15793189313190328  1.0000
  H   H127      1.0  0.8858789194563202  0.34572137901650096  0.65793189329264  1.0000
  H   H128      1.0  0.11412108069996005  0.8457213788056156  0.8420681069874083  1.0000
  H   H129      1.0  0.1913904994922312  0.7569999079653403  0.3807459271721569  1.0000
  H   H130      1.0  0.80860950020524  0.25699990817622553  0.11925407278641786  1.0000
  H   H131      1.0  0.8086095004346445  0.24300009233104258  0.6192540729471545  1.0000
  H   H132      1.0  0.19139049972163577  0.7430000921201574  0.8807459273328936  1.0000
  H   H133      1.0  0.23591677884116682  0.6062564543730181  0.444146635679451  1.0000
  H   H134      1.0  0.7640832208563043  0.10625645458390337  0.05585336427912376  1.0000
  H   H135      1.0  0.7640832210857088  0.3937435459233648  0.5558533644398606  1.0000
  H   H136      1.0  0.23591677907057146  0.8937435457124794  0.9441466358401878  1.0000
  H   H137      1.0  0.04085986653189831  0.5884371579803347  0.44427544693813414  1.0000
  H   H138      1.0  0.9591401332577861  0.08843715819122001  0.055724553485409556  1.0000
  H   H139      1.0  0.9591401333949774  0.4115628415978947  0.5557245531811774  1.0000
  H   H140      1.0  0.04085986666908966  0.9115628421051628  0.9442754466339021  1.0000
  H   H141      1.0  0.12636914866670068  0.6884573337416873  0.483496785591624  1.0000
  H   H142      1.0  0.8736308510307704  0.1884573339525726  0.016503214366950698  1.0000
  H   H143      1.0  0.873630851260175  0.3115426658365421  0.5165032145276874  1.0000
  H   H144      1.0  0.1263691488961053  0.8115426656256567  0.9834967857523608  1.0000
  C   C1        1.0  0.41398086264454237  0.008506046665486268  0.4419977771780914  1.0000
  C   C2        1.0  0.5860191381638947  0.508506046454601  0.058002222779585326  1.0000
  C   C3        1.0  0.5860191383932993  0.9914939536308965  0.558002222940322  1.0000
  C   C4        1.0  0.413980861762981  0.4914939531236284  0.9419977773397262  1.0000
  C   C5        1.0  0.44029683179646023  0.08754051701475953  0.48100393327454316  1.0000
  C   C6        1.0  0.5597031690119768  0.5875405175220277  0.018996066683133594  1.0000
  C   C7        1.0  0.5597031691491682  0.9124594825634699  0.5189960663789015  1.0000
  C   C8        1.0  0.44029683091489896  0.4124594827743551  0.9810039334361779  1.0000
  C   C9        1.0  0.47400752608007934  0.920761971501069  0.46239241052340097  1.0000
  C   C10       1.0  0.5259924736173919  0.4207619709938008  0.03760758943517379  1.0000
  C   C11       1.0  0.5259924738467964  0.07923802879531386  0.5376075895959106  1.0000
  C   C12       1.0  0.4740075263094839  0.5792380285844285  0.9623924106841378  1.0000
  C   C13       1.0  0.41926105083147874  0.9989220232147951  0.053813263939909296  1.0000
  C   C14       1.0  0.5807389488659924  0.4989220234256805  0.44618673601866543  1.0000
  C   C15       1.0  0.580738949095397  0.0010779763634342207  0.9461867361794022  1.0000
  C   C16       1.0  0.4192610510608833  0.5010779768707024  0.5538132641006461  1.0000
  C   C17       1.0  0.45904931890161493  0.08498821754336928  0.02652727554165925  1.0000
  C   C18       1.0  0.5409506807958562  0.584988217332484  0.4734727244169155  1.0000
  C   C19       1.0  0.5409506810252608  0.9150117827530135  0.9734727245776522  1.0000
  C   C20       1.0  0.45904931903880625  0.41501178224574536  0.5265272752374272  1.0000
  C   C21       1.0  0.4616880627059097  0.9137227216951942  0.02640369645002969  1.0000
  C   C22       1.0  0.5383119369915614  0.4137227211879261  0.47359630350854504  1.0000
  C   C23       1.0  0.538311937220966  0.08627727860118863  0.9735963036692818  1.0000
  C   C24       1.0  0.46168806293531434  0.5862772783903033  0.5264036966107665  1.0000
  C   C25       1.0  0.7360895963837565  0.9109544188963167  0.34754565665166304  1.0000
  C   C26       1.0  0.2639104033137147  0.410954419107202  0.1524543433069117  1.0000
  C   C27       1.0  0.26391040354311934  0.08904558068191275  0.6524543434676485  1.0000
  C   C28       1.0  0.7360895966131611  0.5890455811891808  0.8475456568123998  1.0000
  C   C29       1.0  0.8535447350218694  0.9856522685402521  0.3675452047449411  1.0000
  C   C30       1.0  0.14645526467560166  0.48565226875113754  0.13245479521363362  1.0000
  C   C31       1.0  0.146455264812793  0.014347731756130619  0.6324547949094015  1.0000
  C   C32       1.0  0.8535447352512741  0.5143477315452454  0.867545204905678  1.0000
  C   C33       1.0  0.797196503502663  0.05289905087540104  0.4165510287001885  1.0000
  C   C34       1.0  0.20280349619480814  0.5528990506645157  0.08344897125838624  1.0000
  C   C35       1.0  0.20280349642421275  0.9471009494209819  0.583448971419123  1.0000
  C   C36       1.0  0.7971965037320676  0.44710094891371366  0.9165510288609253  1.0000
  C   C37       1.0  0.9159322231234268  0.12453489521480973  0.4409356935382464  1.0000
  C   C38       1.0  0.08406777768501027  0.6245348950039245  0.0590643064194303  1.0000
  C   C39       1.0  0.08406777680344896  0.875465105081573  0.5590643065810651  1.0000
  C   C40       1.0  0.9159322233528313  0.3754651052924584  0.9409356936989832  1.0000
  C   C41       1.0  0.7812921383162755  0.9001050446463223  0.23667294562622507  1.0000
  C   C42       1.0  0.2187078624921615  0.4001050448572077  0.2633270543314517  1.0000
  C   C43       1.0  0.21870786262935288  0.09989495565006043  0.7633270540272197  1.0000
  C   C44       1.0  0.7812921374347142  0.5998949554391751  0.7366729457878598  1.0000
  C   C45       1.0  0.8235429706421572  0.8441367351163679  0.18026033239669773  1.0000
  C   C46       1.0  0.176457029055314  0.34413673532725314  0.31973966756187705  1.0000
  C   C47       1.0  0.17645702928471857  0.15586326446186155  0.8197396677226138  1.0000
  C   C48       1.0  0.8235429707793485  0.6558632649691297  0.6802603320924656  1.0000
  C   C49       1.0  0.8130943048473294  0.9115525610201151  0.12402902817941464  1.0000
  C   C50       1.0  0.18690569485014186  0.4115525612310004  0.37597097177916017  1.0000
  C   C51       1.0  0.1869056950795464  0.08844743855811425  0.8759709719398967  1.0000
  C   C52       1.0  0.8130943050767339  0.588447438347229  0.6240290283401514  1.0000
  C   C53       1.0  0.8706126493657282  0.8655542195287725  0.06656206895227712  1.0000
  C   C54       1.0  0.12938735144270888  0.3655542197396578  0.43343793100539957  1.0000
  C   C55       1.0  0.12938735167211346  0.1344457800494569  0.9334379311661363  1.0000
  C   C56       1.0  0.8706126483919536  0.6344457805567251  0.5665620686489431  1.0000
  C   C57       1.0  0.6622977167985913  0.7628681948967458  0.28910025484896673  1.0000
  C   C58       1.0  0.33770228400984564  0.2628681951076311  0.21089974510871  1.0000
  C   C59       1.0  0.33770228423925025  0.23713180539963705  0.7108997452694468  1.0000
  C   C60       1.0  0.66229771591703  0.7371318051887518  0.7891002550106014  1.0000
  C   C61       1.0  0.5109545887739385  0.7914820941288804  0.2584843961656994  1.0000
  C   C62       1.0  0.48904541203449864  0.29148209433976563  0.24151560379197737  1.0000
  C   C63       1.0  0.4890454111529373  0.2085179061675025  0.7415156039536122  1.0000
  C   C64       1.0  0.510954589003343  0.7085179059566171  0.758484396326436  1.0000
  C   C65       1.0  0.4019431084609325  0.707164344663224  0.25985232377271333  1.0000
  C   C66       1.0  0.5980568923475045  0.20716434487410934  0.24014767618496335  1.0000
  C   C67       1.0  0.5980568924846958  0.29283565491500535  0.7401476758807313  1.0000
  C   C68       1.0  0.4019431075793712  0.79283565470412  0.759852323934348  1.0000
  C   C69       1.0  0.2527793884645346  0.7314434192918444  0.22477394039555404  1.0000
  C   C70       1.0  0.7472206112329366  0.23144341950272967  0.27522605956302076  1.0000
  C   C71       1.0  0.7472206114623412  0.26855658100453844  0.7752260597237575  1.0000
  C   C72       1.0  0.25277938869393923  0.7685565807936532  0.7247739405562907  1.0000
  C   C73       1.0  0.9296585691155129  0.7989939679135722  0.3126151867780458  1.0000
  C   C74       1.0  0.0703414305819582  0.29899396812445755  0.18738481318052896  1.0000
  C   C75       1.0  0.07034143071914954  0.20100603166465714  0.6873848128762968  1.0000
  C   C76       1.0  0.9296585693449176  0.7010060321719254  0.8126151869387827  1.0000
  C   C77       1.0  0.9502563061161587  0.7492368226612395  0.37533709124987885  1.0000
  C   C78       1.0  0.04974369358131251  0.24923682287212476  0.12466290870869588  1.0000
  C   C79       1.0  0.04974369381071712  0.2507631776351434  0.6246629088694327  1.0000
  C   C80       1.0  0.95025630625335  0.750763177424258  0.8753370909456467  1.0000
  C   C81       1.0  0.10413130383157349  0.7017569786817214  0.38229759487816106  1.0000
  C   C82       1.0  0.8958686958658976  0.2017569788926066  0.11770240508041364  1.0000
  C   C83       1.0  0.895868696003089  0.29824302089650806  0.6177024047761814  1.0000
  C   C84       1.0  0.1041313040609781  0.7982430214037762  0.8822975950388979  1.0000
  C   C85       1.0  0.12808788042259658  0.643259935168275  0.44186695821490746  1.0000
  C   C86       1.0  0.8719121192748746  0.1432599353791603  0.05813304174366732  1.0000
  C   C87       1.0  0.8719121195042792  0.35674006440995437  0.558133041904404  1.0000
  C   C88       1.0  0.12808788065200113  0.8567400649172225  0.9418669583756442  1.0000
  N   N1        1.0  0.7770982359152209  0.843212307145924  0.29646040654205286  1.0000
  N   N2        1.0  0.22290176378225032  0.3432123073568093  0.2035395934165219  1.0000
  N   N3        1.0  0.22290176401165493  0.15678769243230542  0.7035395935772586  1.0000
  N   N4        1.0  0.7770982360524122  0.6567876929395735  0.7964604062378207  1.0000
  F   F1        1.0  0.38050239914504386  0.17398167033765471  0.46430006696777154  1.0000
  F   F2        1.0  0.6194976005524273  0.6739816701267693  0.035699932990803214  1.0000
  F   F3        1.0  0.6194976006896187  0.8260183299587281  0.5356999326865711  1.0000
  F   F4        1.0  0.38050239937444846  0.32601833016961346  0.9643000671285084  1.0000
  F   F5        1.0  0.4507097724472815  0.8414268892916309  0.42619717763270093  1.0000
  F   F6        1.0  0.5492902284533688  0.3414268887843628  0.07380282278994471  1.0000
  F   F7        1.0  0.5492902274795943  0.15857311100475194  0.5738028224866106  1.0000
  F   F8        1.0  0.45070977147350694  0.6585731107938666  0.9261971773293667  1.0000
  F   F9        1.0  0.4205105861456771  0.16955834050074572  0.051843285160212846  1.0000
  F   F10       1.0  0.5794894135517941  0.6695583402898604  0.44815671479836194  1.0000
  F   F11       1.0  0.5794894137811987  0.8304416597956371  0.9481567149590986  1.0000
  F   F12       1.0  0.42051058628286847  0.3304416600065224  0.5518432848559807  1.0000
  F   F13       1.0  0.42480940229015585  0.8281275890652615  0.05093341040040476  1.0000
  F   F14       1.0  0.5751905985182812  0.3281275892761468  0.4490665895572719  1.0000
  F   F15       1.0  0.5751905987476859  0.17187241051296787  0.9490665897180087  1.0000
  F   F16       1.0  0.4248094014085945  0.6718724110202361  0.5509334105620396  1.0000
  Cl  Cl1       1.0  0.10384198319310313  0.04046394636996193  0.23765272244380922  1.0000
  Cl  Cl2       1.0  0.8961580165043681  0.5404639468772301  0.2623472775147656  1.0000
  Cl  Cl3       1.0  0.8961580166415594  0.9595360532082674  0.7623472772105334  1.0000
  Cl  Cl4       1.0  0.10384198342250772  0.45953605341915277  0.737652722604546  1.0000
  I   I1        1.0  0.288872705169356  0.021900566860176104  0.35413232282633117  1.0000
  I   I2        1.0  0.7111272945281151  0.5219005666492909  0.1458676771322436  1.0000
  I   I3        1.0  0.7111272947575198  0.9780994334362068  0.6458676772929804  1.0000
  I   I4        1.0  0.2888727053987606  0.47809943292893853  0.854132322987068  1.0000
  I   I5        1.0  0.29362411285552226  0.00158744376961951  0.13263541882339241  1.0000
  I   I6        1.0  0.7063758868419489  0.5015874442768876  0.36736458113518233  1.0000
  I   I7        1.0  0.7063758869791402  0.9984125558086099  0.86736458083095  1.0000
  I   I8        1.0  0.29362411308492686  0.4984125560194952  0.6326354189841292  1.0000
