data_image0
_chemical_formula_structural       H72C92N10O12S4
_chemical_formula_sum              "H72 C92 N10 O12 S4"
_cell_length_a       9.453863681408789
_cell_length_b       13.193539291958796
_cell_length_c       16.10281952284999
_cell_angle_alpha    92.31012563313291
_cell_angle_beta     90.19001080963193
_cell_angle_gamma    102.24631022180296

_space_group_name_H-M_alt    "P 1"
_space_group_IT_number       1

loop_
  _space_group_symop_operation_xyz
  'x, y, z'

loop_
  _atom_site_type_symbol
  _atom_site_label
  _atom_site_symmetry_multiplicity
  _atom_site_fract_x
  _atom_site_fract_y
  _atom_site_fract_z
  _atom_site_occupancy
  H   H1        1.0  0.40217972981923644  0.48252576526702945  0.23841444528020517  1.0000
  H   H2        1.0  0.5978202701390938  0.5174742342961761  0.7615855541557897  1.0000
  H   H3        1.0  0.34302219962034536  0.518297384435784  0.05465996914671316  1.0000
  H   H4        1.0  0.6569777995337702  0.48170261593896735  0.9453400309139849  1.0000
  H   H5        1.0  0.6512365751457507  0.521877812352579  0.524021016050686  1.0000
  H   H6        1.0  0.3487634250651647  0.47812218801904266  0.4759789840066388  1.0000
  H   H7        1.0  0.44028390265670797  0.3733454999622544  0.005816041351352197  1.0000
  H   H8        1.0  0.559716097320596  0.6266544996337889  0.9941839587061937  1.0000
  H   H9        1.0  0.7717440614720344  0.2232000584146094  0.21498947439306343  1.0000
  H   H10       1.0  0.22825593850526962  0.7767999411814339  0.7850105256644824  1.0000
  H   H11       1.0  0.7469127920279269  0.1640103724665484  0.11281717358969179  1.0000
  H   H12       1.0  0.25308720818298863  0.8359896279050734  0.8871828264676328  1.0000
  H   H13       1.0  0.6239519934051254  0.11747228210621527  0.19425867143943892  1.0000
  H   H14       1.0  0.3760480068057902  0.8825277182654065  0.8057413286178857  1.0000
  H   H15       1.0  0.5951828411213942  0.22180827751697227  0.01229856226125358  1.0000
  H   H16       1.0  0.4048171588559098  0.778191722079071  0.9877014377962923  1.0000
  H   H17       1.0  0.5918582437445999  0.13891420584209324  0.4648255003927836  1.0000
  H   H18       1.0  0.4081417564663156  0.8610857945295284  0.5351744996645411  1.0000
  H   H19       1.0  0.07407559576373651  0.71072152887721  0.18156569712444598  1.0000
  H   H20       1.0  0.9259244044471789  0.28927847149441177  0.8184343029328787  1.0000
  H   H21       1.0  0.10245988287339439  0.7697673848551154  0.08404795330676294  1.0000
  H   H22       1.0  0.8975401171039096  0.2302326147409279  0.9159520467507829  1.0000
  H   H23       1.0  0.6617915287093001  0.4018502795136259  0.6391244855504696  1.0000
  H   H24       1.0  0.33820847124903003  0.5981497200495798  0.36087551388552525  1.0000
  H   H25       1.0  0.6330650822649152  0.21416631266197642  0.6100149889126267  1.0000
  H   H26       1.0  0.36693491771238884  0.7858336869340669  0.38998501114491907  1.0000
  H   H27       1.0  0.06985980382937806  0.7691419246801499  0.29424232744740814  1.0000
  H   H28       1.0  0.9301401963815373  0.2308580756914717  0.7057576726099165  1.0000
  H   H29       1.0  0.18426219804824084  0.04839858098132933  0.44846195231560554  1.0000
  H   H30       1.0  0.8157378021626746  0.9516014193902923  0.551538047741719  1.0000
  H   H31       1.0  0.4089589626510638  0.020569304467048622  0.2188964184125883  1.0000
  H   H32       1.0  0.5910410373262404  0.9794306951289946  0.7811035816449576  1.0000
  H   H33       1.0  0.37139463399273814  0.12441269048858777  0.3453982722143752  1.0000
  H   H34       1.0  0.6286053662181774  0.875587309883034  0.6546017278429496  1.0000
  H   H35       1.0  0.035458294219458814  0.8697304647219106  0.42177693331944566  1.0000
  H   H36       1.0  0.9645417049346567  0.1302695356528405  0.5782230667412526  1.0000
  H   H37       1.0  0.7934310601546917  0.49419807187987247  0.06680112900458253  1.0000
  H   H38       1.0  0.2065689400562238  0.5058019284917491  0.9331988710527421  1.0000
  H   H39       1.0  0.961588887352365  0.5134033307542647  0.23283013592314197  1.0000
  H   H40       1.0  0.0384111126059652  0.486596668808941  0.7671698635128528  1.0000
  H   H41       1.0  0.9276726136468821  0.4100588381263696  0.5325839757355063  1.0000
  H   H42       1.0  0.07232738633042203  0.5899411614696738  0.46741602432203955  1.0000
  H   H43       1.0  0.3338710806212783  0.23827200445196406  0.449017417397013  1.0000
  H   H44       1.0  0.6661289193560257  0.7617279951440792  0.5509825826605329  1.0000
  H   H45       1.0  0.9654388604383262  0.39345711774908343  0.0035618105726074496  1.0000
  H   H46       1.0  0.034561139772589365  0.6065428826225382  0.9964381894847172  1.0000
  H   H47       1.0  0.1211254009214167  0.2418902108515088  0.005090425573740128  1.0000
  H   H48       1.0  0.8788745990558873  0.7581097887445346  0.9949095744838057  1.0000
  H   H49       1.0  0.2837289871170574  0.27053792002952964  0.5981685900673652  1.0000
  H   H50       1.0  0.716271013093858  0.7294620803420919  0.4018314099899594  1.0000
  H   H51       1.0  0.21269330132727518  0.14415401657530993  0.10265208346012863  1.0000
  H   H52       1.0  0.7873066986500289  0.8558459830207334  0.8973479165974173  1.0000
  H   H53       1.0  0.13597868547268105  0.13648920164573075  0.20418372842829408  1.0000
  H   H54       1.0  0.864021314504623  0.8635107979503125  0.7958162716292518  1.0000
  H   H55       1.0  0.30227359810945215  0.2238808654227322  0.18803399947841068  1.0000
  H   H56       1.0  0.6977264021014634  0.7761191349488894  0.811966000578914  1.0000
  H   H57       1.0  0.08739083326120137  0.3578248730082346  0.6394831671553236  1.0000
  H   H58       1.0  0.9126091666971288  0.642175126554971  0.3605168322806712  1.0000
  H   H59       1.0  0.5894452725831923  0.7091090718544243  0.2164848326705229  1.0000
  H   H60       1.0  0.41055472760874934  0.2908909284843597  0.7835151667652506  1.0000
  H   H61       1.0  0.5580984551951509  0.7500455872966619  0.11536367068437858  1.0000
  H   H62       1.0  0.44190154478215316  0.24995441229938134  0.8846363293731673  1.0000
  H   H63       1.0  0.5667161045635565  0.8271399275691259  0.2949020923527955  1.0000
  H   H64       1.0  0.4332838954137476  0.17286007202691736  0.7050979077047503  1.0000
  H   H65       1.0  0.9848164604696785  0.12890634398625203  0.31154709143621573  1.0000
  H   H66       1.0  0.015183538684436997  0.8710936563884992  0.6884529086244824  1.0000
  H   H67       1.0  0.7977645084780695  0.10819781762568458  0.4201718252864109  1.0000
  H   H68       1.0  0.20223549173284605  0.8918021827459371  0.5798281747709138  1.0000
  H   H69       1.0  0.9636418222077717  0.996405167972409  0.19342641635622262  1.0000
  H   H70       1.0  0.03635817800314374  0.0035948323992126855  0.806573583701102  1.0000
  H   H71       1.0  0.587393798371638  0.95685995249791  0.4113095855716742  1.0000
  H   H72       1.0  0.41260620183927754  0.04314004787371163  0.5886904144856505  1.0000
  C   C1        1.0  0.5557121102260014  0.3310569879876323  0.19453079394305536  1.0000
  C   C2        1.0  0.4442878899849141  0.6689430123839895  0.8054692061142693  1.0000
  C   C3        1.0  0.5781095565600667  0.3378728549029258  0.2834868972904801  1.0000
  C   C4        1.0  0.42189044365084893  0.6621271454686958  0.7165131027668447  1.0000
  C   C5        1.0  0.482305668273853  0.38907646642795785  0.14342745906670726  1.0000
  C   C6        1.0  0.5176943306466512  0.6109235331712151  0.8565725409942121  1.0000
  C   C7        1.0  0.6043392861102735  0.28845259588657446  0.4119387927984091  1.0000
  C   C8        1.0  0.3956607128102306  0.7115474037125984  0.5880612072625102  1.0000
  C   C9        1.0  0.4081423507024852  0.46777462837639955  0.17138015923458308  1.0000
  C   C10       1.0  0.5918576495084302  0.5322253719952221  0.8286198408227416  1.0000
  C   C11       1.0  0.27801850227924235  0.6069275758398093  0.15957951013113095  1.0000
  C   C12       1.0  0.7219814976980617  0.3930724237562341  0.8404204899264149  1.0000
  C   C13       1.0  0.34398214771194763  0.5265311159668896  0.12217515887083934  1.0000
  C   C14       1.0  0.6560178522463825  0.473468883596316  0.8778248405651554  1.0000
  C   C15       1.0  0.6193180225713437  0.3968430181786794  0.42984673447877103  1.0000
  C   C16       1.0  0.38068197740596027  0.6031569814173638  0.5701532655787748  1.0000
  C   C17       1.0  0.6394573013327673  0.43893116476993854  0.5111746103927634  1.0000
  C   C18       1.0  0.3605426986445367  0.5610688348261047  0.48882538966478245  1.0000
  C   C19       1.0  0.48951090690428656  0.34889870837922177  0.06032491391796542  1.0000
  C   C20       1.0  0.5104890933066288  0.6511012919924  0.9396750861393592  1.0000
  C   C21       1.0  0.24174817835212967  0.8889783734061831  0.2474119633028114  1.0000
  C   C22       1.0  0.7582518218587858  0.11102162696543855  0.7525880367545131  1.0000
  C   C23       1.0  0.6913804549357145  0.18647974421236627  0.16793193784571125  1.0000
  C   C24       1.0  0.3086195450415894  0.813520255383677  0.8320680622118346  1.0000
  C   C25       1.0  0.5649093566325848  0.2703950014136313  0.06240345947891425  1.0000
  C   C26       1.0  0.4350906435783307  0.7296049989579904  0.9375965405784105  1.0000
  C   C27       1.0  0.2726376522341551  0.8303143301759595  0.17137627364507554  1.0000
  C   C28       1.0  0.7273623477241751  0.16968566938724616  0.8286237257909193  1.0000
  C   C29       1.0  0.6071954169060971  0.22213649493912815  0.47788319039495986  1.0000
  C   C30       1.0  0.39280458330481843  0.7778635054324935  0.5221168096623647  1.0000
  C   C31       1.0  0.15605937386776542  0.7408054165775153  0.13603305824191964  1.0000
  C   C32       1.0  0.84394062634315  0.2591945837941064  0.863966941815405  1.0000
  C   C33       1.0  0.6438585712842533  0.37174247231824564  0.5751474597272095  1.0000
  C   C34       1.0  0.35614142892666223  0.628257528053376  0.4248525403301152  1.0000
  C   C35       1.0  0.6273899658480733  0.26437705998137423  0.5585877644257301  1.0000
  C   C36       1.0  0.37261003330604225  0.735622940393377  0.441412235634968  1.0000
  C   C37       1.0  0.13591467685634126  0.8468598958764221  0.30485968609690955  1.0000
  C   C38       1.0  0.8640853231019888  0.15314010368678352  0.6951403133390853  1.0000
  C   C39       1.0  0.2011464104814535  0.0033345842577444085  0.3924706874869202  1.0000
  C   C40       1.0  0.798853589729462  0.9966654161138773  0.6075293125704044  1.0000
  C   C41       1.0  0.3266109387165911  0.9890617441956198  0.26365765894225635  1.0000
  C   C42       1.0  0.6733890612607131  0.010938255400423579  0.7363423411152895  1.0000
  C   C43       1.0  0.30571279381243976  0.046340685353491645  0.3352142239794099  1.0000
  C   C44       1.0  0.6942872063984757  0.95365931501813  0.6647857760779148  1.0000
  C   C45       1.0  0.117133574363333  0.9036079504596678  0.37741982685521797  1.0000
  C   C46       1.0  0.8828664258475825  0.09639204991195374  0.6225801732021067  1.0000
  C   C47       1.0  0.08022401223805212  0.3347431346239729  0.2800486186605608  1.0000
  C   C48       1.0  0.919775987739252  0.6652568649720703  0.7199513813969852  1.0000
  C   C49       1.0  0.159436525522904  0.3062344905638213  0.40549946502053746  1.0000
  C   C50       1.0  0.8405634746880115  0.6937655098078005  0.5945005350367871  1.0000
  C   C51       1.0  0.7894515095142581  0.6121465664953519  0.16599392775134417  1.0000
  C   C52       1.0  0.21054849069665735  0.3878534338762697  0.8340060723059806  1.0000
  C   C53       1.0  0.8366530153180229  0.52340786984978  0.127929334086124  1.0000
  C   C54       1.0  0.16334698465928113  0.47659212974626336  0.8720706659714219  1.0000
  C   C55       1.0  0.9299762159531415  0.47913819629975973  0.17081151450415824  1.0000
  C   C56       1.0  0.07002378402416261  0.5208618032962836  0.8291884855533878  1.0000
  C   C57       1.0  0.9930685593597584  0.3950220000659996  0.14181343206954183  1.0000
  C   C58       1.0  0.006931440617545589  0.6049779995300437  0.8581865679880041  1.0000
  C   C59       1.0  0.06564308496879984  0.3344329869674186  0.19111176333212723  1.0000
  C   C60       1.0  0.9343569152421156  0.6655670134042031  0.8088882367251975  1.0000
  C   C61       1.0  0.044406895183084896  0.3546056459322446  0.4305807548997862  1.0000
  C   C62       1.0  0.9555931047752452  0.6453943536309611  0.5694192445362085  1.0000
  C   C63       1.0  0.7653887867668453  0.9036507809934318  0.23641226192476722  1.0000
  C   C64       1.0  0.23461121321045886  0.09634921860261161  0.7635877381327786  1.0000
  C   C65       1.0  0.016120960865321866  0.3732640265813449  0.5143041825595115  1.0000
  C   C66       1.0  0.9838790380551822  0.6267359730178279  0.4856958175014078  1.0000
  C   C67       1.0  0.24498410305661403  0.274673317762518  0.4668917192050189  1.0000
  C   C68       1.0  0.7550158971543015  0.7253266826091036  0.5331082808523058  1.0000
  C   C69       1.0  0.006354188242423955  0.3618503823173856  0.05751578522863422  1.0000
  C   C70       1.0  0.9936458119495176  0.6381496180213985  0.9424842142071393  1.0000
  C   C71       1.0  0.7650495983702624  0.8262535254372405  0.16684922111384307  1.0000
  C   C72       1.0  0.234950401840653  0.17374647493438117  0.8331507789434817  1.0000
  C   C73       1.0  0.08503948521019242  0.284950687721803  0.056946391468650416  1.0000
  C   C74       1.0  0.9149605147671116  0.7150493118742404  0.9430536085888955  1.0000
  C   C75       1.0  0.21689567661605796  0.29362035452817586  0.5501704973001942  1.0000
  C   C76       1.0  0.7831043235948575  0.7063796458434459  0.4498295027571306  1.0000
  C   C77       1.0  0.19729938904826225  0.1884461788015245  0.1595539541129203  1.0000
  C   C78       1.0  0.8027006111626532  0.8115538215700971  0.8404460459444044  1.0000
  C   C79       1.0  0.10428527319103788  0.3429688682516972  0.5736999795364538  1.0000
  C   C80       1.0  0.8957147267862661  0.6570311313443461  0.4263000205210921  1.0000
  C   C81       1.0  0.64046829765406  0.7317621108383046  0.15720179805270557  1.0000
  C   C82       1.0  0.35953170232324405  0.26823788875773874  0.8427982020048403  1.0000
  C   C83       1.0  0.6588075135044063  0.8927831581039022  0.297882437792424  1.0000
  C   C84       1.0  0.34119248647289785  0.10721684149214113  0.7021175622651218  1.0000
  C   C85       1.0  0.8930393420003997  0.06305544178588354  0.30702687896968783  1.0000
  C   C86       1.0  0.10696065819154187  0.9369445585529004  0.6929731204660858  1.0000
  C   C87       1.0  0.7876631367179849  0.05093606164328996  0.36861217115874795  1.0000
  C   C88       1.0  0.21233686325931905  0.9490639379527533  0.631387828898798  1.0000
  C   C89       1.0  0.8817294027759361  0.9899897165704761  0.24146778334783112  1.0000
  C   C90       1.0  0.11827059743497922  0.01001028380114546  0.7585322167094936  1.0000
  C   C91       1.0  0.6703757955683285  0.966250436582113  0.36368104318466676  1.0000
  C   C92       1.0  0.3296242044089756  0.033749563013930436  0.6363189568728792  1.0000
  N   N1        1.0  0.6044954173630703  0.2594689008324523  0.14350373955781878  1.0000
  N   N2        1.0  0.39550458177207143  0.7405310995094613  0.8564962598813283  1.0000
  N   N3        1.0  0.5821413000816766  0.25801070234136125  0.32924572316516826  1.0000
  N   N4        1.0  0.4178586998956273  0.7419892972546821  0.6707542768923777  1.0000
  N   N5        1.0  0.1766405422778569  0.2962270429735076  0.3207469662043343  1.0000
  N   N6        1.0  0.8233594579330586  0.7037729573981141  0.6792530338529903  1.0000
  N   N7        1.0  0.11953295505495576  0.2678225544374997  0.13755329836635344  1.0000
  N   N8        1.0  0.8804670449223483  0.7321774451585435  0.8624467016911924  1.0000
  N   N9        1.0  0.05026872000041036  0.9848614020940705  0.9959483494945734  1.0000
  N   N10       1.0  0.949731280210505  0.01513859827755108  0.00405165056275118  1.0000
  O   O1        1.0  0.21800874020966132  0.6582406572676878  0.10094276634888748  1.0000
  O   O2        1.0  0.7819912597676427  0.34175934232835553  0.8990572337086584  1.0000
  O   O3        1.0  0.2754622691280358  0.6314800772619298  0.23424729509893014  1.0000
  O   O4        1.0  0.7245377308492682  0.36851992233411357  0.7657527049586158  1.0000
  O   O5        1.0  0.3885841354783971  0.8548830079278431  0.1344579783721629  1.0000
  O   O6        1.0  0.6114158647325183  0.14511699244377846  0.8655420216851618  1.0000
  O   O7        1.0  0.6888885653994793  0.6451148188487317  0.11867600829963687  1.0000
  O   O8        1.0  0.3111114345778247  0.35488518074731173  0.8813239917579089  1.0000
  O   O9        1.0  0.8317836976176735  0.6563098937965935  0.23342484798143173  1.0000
  O   O10       1.0  0.168216302593242  0.343690106575028  0.766575152075893  1.0000
  O   O11       1.0  0.862969395472777  0.837892749373871  0.11534680529505424  1.0000
  O   O12       1.0  0.13703060450452711  0.16210725022217243  0.8846531947624917  1.0000
  S   S1        1.0  0.6057338332118057  0.45889926287918564  0.3387286249908861  1.0000
  S   S2        1.0  0.394266165923336  0.541100737462728  0.6612713744482609  1.0000
  S   S3        1.0  0.9570976631919285  0.38519026689950797  0.3438346485171098  1.0000
  S   S4        1.0  0.04290233701898694  0.6148097334721137  0.6561653515402148  1.0000
