data_image0
_chemical_formula_structural       H48C44N24O20F4S8Cl4
_chemical_formula_sum              "H48 C44 N24 O20 F4 S8 Cl4"
_cell_length_a       11.671772571623722
_cell_length_b       9.166802736835706
_cell_length_c       15.337892289370773
_cell_angle_alpha    90.0
_cell_angle_beta     98.43083728991077
_cell_angle_gamma    90.0

_space_group_name_H-M_alt    "P 1"
_space_group_IT_number       1

loop_
  _space_group_symop_operation_xyz
  'x, y, z'

loop_
  _atom_site_type_symbol
  _atom_site_label
  _atom_site_symmetry_multiplicity
  _atom_site_fract_x
  _atom_site_fract_y
  _atom_site_fract_z
  _atom_site_occupancy
  H   H1        1.0  0.15657795810336617  0.35766477954468956  0.4681337710790283  1.0000
  H   H2        1.0  0.3434220411985904  0.857664778626392  0.03186622857424317  1.0000
  H   H3        1.0  0.8434220414868098  0.642335220800501  0.5318662288843438  1.0000
  H   H4        1.0  0.6565779583915855  0.14233522062790568  0.9681337713891288  1.0000
  H   H5        1.0  0.9324660165171574  0.9348880275957875  0.32887032329097343  1.0000
  H   H6        1.0  0.5675339829444025  0.43488802742319216  0.17112967628585088  1.0000
  H   H7        1.0  0.0675339830730185  0.06511197165851017  0.6711296766723986  1.0000
  H   H8        1.0  0.43246601664577344  0.5651119718311055  0.8288703236775212  1.0000
  H   H9        1.0  0.26292192425348165  0.7209607678632486  0.4719078904091451  1.0000
  H   H10       1.0  0.23707807603473768  0.22096076769065334  0.02809210990095544  1.0000
  H   H11       1.0  0.7370780753366943  0.2790392324819419  0.528092109554227  1.0000
  H   H12       1.0  0.7629219244117638  0.7790392326545372  0.971907890060147  1.0000
  H   H13       1.0  0.21908691210453524  0.8148524654058862  0.5623200150356646  1.0000
  H   H14       1.0  0.2809130874843194  0.3148524652332909  0.9376799846551565  1.0000
  H   H15       1.0  0.7809130874856407  0.1851475349393044  0.4376799849277074  1.0000
  H   H16       1.0  0.719086912962182  0.6851475351118996  0.062320015305945935  1.0000
  H   H17       1.0  0.026676450785204194  0.4890271219632927  0.2351276480684955  1.0000
  H   H18       1.0  0.47332354937307786  0.989027121044995  0.2648723515825063  1.0000
  H   H19       1.0  0.9733235488049718  0.5109728783818979  0.7648723518948766  1.0000
  H   H20       1.0  0.5266764510734236  0.010972878209302603  0.7351276483785961  1.0000
  H   H21       1.0  0.33735534843767717  0.9497033993125  0.423958791285233  1.0000
  H   H22       1.0  0.16264465185054225  0.44970339913990487  0.07604120902486755  1.0000
  H   H23       1.0  0.6626446520088243  0.0502966010326904  0.5760412086758694  1.0000
  H   H24       1.0  0.8373553477396337  0.5502966001143929  0.9239587909385045  1.0000
  H   H25       1.0  0.8786767234971491  0.4621621214751281  0.21839460507690409  1.0000
  H   H26       1.0  0.6213232769506737  0.9621621216477234  0.28160539515674926  1.0000
  H   H27       1.0  0.12132327694935238  0.5378378788700625  0.7816053948841983  1.0000
  H   H28       1.0  0.3786767236257651  0.03783787869746722  0.7183946054634519  1.0000
  H   H29       1.0  0.07533512414663748  0.7734424633694472  0.41024748566933145  1.0000
  H   H30       1.0  0.42466487601164465  0.27344246428774494  0.0897525139816704  1.0000
  H   H31       1.0  0.9246648762998639  0.22655753588485036  0.589752514291771  1.0000
  H   H32       1.0  0.5753351235785314  0.7265575360574457  0.9102474859817017  1.0000
  H   H33       1.0  0.23055861142388925  0.7134535571186051  0.24848226463003445  1.0000
  H   H34       1.0  0.26944138800800466  0.2134535569460099  0.2515177356823358  1.0000
  H   H35       1.0  0.7694413881662867  0.28654644213569247  0.7515177353333375  1.0000
  H   H36       1.0  0.7305586115821713  0.7865464423082877  0.7484822642810363  1.0000
  H   H37       1.0  0.08631644495139022  0.2861916183117948  0.15543771249709054  1.0000
  H   H38       1.0  0.4136835544805036  0.78619161848439  0.34456228781527964  1.0000
  H   H39       1.0  0.913683554768723  0.7138083820333958  0.8445622881253804  1.0000
  H   H40       1.0  0.5863164451096723  0.21380838186080053  0.6554377121480923  1.0000
  H   H41       1.0  0.9693210266266812  0.20052477213385736  0.08721895486349733  1.0000
  H   H42       1.0  0.5306789729648161  0.7005247723064526  0.4127810453724257  1.0000
  H   H43       1.0  0.030678972963494887  0.7994752282113332  0.9127810450998747  1.0000
  H   H44       1.0  0.4693210266253598  0.29947522803873794  0.5872189545909464  1.0000
  H   H45       1.0  0.04798582161720898  0.6975017040900239  0.15200989505324522  1.0000
  H   H46       1.0  0.4520141776847476  0.1975017039174286  0.3479901046000263  1.0000
  H   H47       1.0  0.952014177972967  0.30249829625516667  0.8479901049101269  1.0000
  H   H48       1.0  0.5479858219054283  0.8024982964277619  0.6520098953633457  1.0000
  C   C1        1.0  0.08531719975715582  0.9989245032189805  0.419068237698759  1.0000
  C   C2        1.0  0.4146828005310635  0.49892450304638536  0.08093176261134157  1.0000
  C   C3        1.0  0.9146828008192829  0.0010754971262099166  0.5809317629214421  1.0000
  C   C4        1.0  0.5853171999154378  0.5010754972988052  0.9190682373497608  1.0000
  C   C5        1.0  0.9440932775535916  0.16717988637868367  0.3410677415571687  1.0000
  C   C6        1.0  0.5559067227642939  0.6671798865512789  0.15893225801738595  1.0000
  C   C7        1.0  0.055906722892909884  0.832820112875614  0.6589322584039337  1.0000
  C   C8        1.0  0.44409327768220763  0.3328201127030187  0.8410677419437165  1.0000
  C   C9        1.0  0.14693636701958615  0.12368843342115884  0.4565299024169519  1.0000
  C   C10       1.0  0.3530636324123077  0.6236884325028612  0.04347009789541836  1.0000
  C   C11       1.0  0.8530636325705897  0.8763115669240317  0.5434700975464202  1.0000
  C   C12       1.0  0.6469363671778682  0.3763115667514364  0.9565299020679539  1.0000
  C   C13       1.0  0.10771675393971149  0.2651040618813258  0.43744116601156474  1.0000
  C   C14       1.0  0.39228324549218235  0.765104062053921  0.0625588343008055  1.0000
  C   C15       1.0  0.8922832456504645  0.7348959384638647  0.5625588339518074  1.0000
  C   C16       1.0  0.6077167540979935  0.23489593829126945  0.9374411656625665  1.0000
  C   C17       1.0  0.9825771654755797  0.02605304563174657  0.35991936601523644  1.0000
  C   C18       1.0  0.5174228339859801  0.5260530458043419  0.14008063356158784  1.0000
  C   C19       1.0  0.01742283411459621  0.973946954713444  0.6400806339481355  1.0000
  C   C20       1.0  0.4825771656041958  0.4739469545408487  0.8599193664017843  1.0000
  C   C21       1.0  0.0055059396804753346  0.2895739961037164  0.3802710127279465  1.0000
  C   C22       1.0  0.49449406047780675  0.7895739962763118  0.11972898692305532  1.0000
  C   C23       1.0  0.9944940599097006  0.7104260031505812  0.6197289872354256  1.0000
  C   C24       1.0  0.5055059399686948  0.21042600297798594  0.880271013038047  1.0000
  C   C25       1.0  0.23132943122777624  0.825733847155182  0.4929959455681309  1.0000
  C   C26       1.0  0.26867056893050584  0.32573384698258684  0.007004054082870948  1.0000
  C   C27       1.0  0.7686705692187253  0.17426615319000846  0.5070040543929716  1.0000
  C   C28       1.0  0.7313294315159956  0.6742661533626038  0.9929959458782315  1.0000
  C   C29       1.0  0.23941893692181834  0.9413510476585984  0.24839360379072908  1.0000
  C   C30       1.0  0.26058106323646374  0.44135104748600323  0.2516063958602728  1.0000
  C   C31       1.0  0.760581063524683  0.058648952686592065  0.7516063961703733  1.0000
  C   C32       1.0  0.7394189363537123  0.5586489528591874  0.7483936041030993  1.0000
  C   C33       1.0  0.08470356850981009  0.8043838360751403  0.1686886324663543  1.0000
  C   C34       1.0  0.41529643079214645  0.30438383590254503  0.3313113671869172  1.0000
  C   C35       1.0  0.9152964310803658  0.19561616427005027  0.8313113674970177  1.0000
  C   C36       1.0  0.5847035687980295  0.6956161644426455  0.6686886327764548  1.0000
  C   C37       1.0  0.03417428897966396  0.9301398584413343  0.13572886560814804  1.0000
  C   C38       1.0  0.4658257111786181  0.4301398582687391  0.3642711340428539  1.0000
  C   C39       1.0  0.9658257114668375  0.06986014190385621  0.8642711343529543  1.0000
  C   C40       1.0  0.5341742884115578  0.5698601420764515  0.6357288659205182  1.0000
  C   C41       1.0  0.08897678582509087  0.06594666835916604  0.1603208565938749  1.0000
  C   C42       1.0  0.41102321347686566  0.5659466674408684  0.3396791430593966  1.0000
  C   C43       1.0  0.911023213765085  0.9340533319860245  0.8396791433694971  1.0000
  C   C44       1.0  0.5889767861133102  0.4340533318134292  0.6603208569039755  1.0000
  N   N1        1.0  0.12352404085990086  0.8606991146755608  0.4360217445611424  1.0000
  N   N2        1.0  0.3764759594283185  0.3606991145029655  0.06397825574895814  1.0000
  N   N3        1.0  0.8764759595866006  0.13930088566962978  0.56397825539996  1.0000
  N   N4        1.0  0.6235240401618575  0.639300885842225  0.936021744214414  1.0000
  N   N5        1.0  0.948552588800941  0.507943031357003  0.2573745716526041  1.0000
  N   N6        1.0  0.5514474107905561  0.007943032275300613  0.24262542858331895  1.0000
  N   N7        1.0  0.051447410789234954  0.4920569678972947  0.742625428310768  1.0000
  N   N8        1.0  0.44855258879961973  0.9920569680698899  0.757374571380053  1.0000
  N   N9        1.0  0.32007293157717953  0.937081401946389  0.4879914812056538  1.0000
  N   N10       1.0  0.17992706858110247  0.4370814017737938  0.012008518445348029  1.0000
  N   N11       1.0  0.6799270680129964  0.06291859839880147  0.5120085187577182  1.0000
  N   N12       1.0  0.8200729318653989  0.5629185985713967  0.9879914815157543  1.0000
  N   N13       1.0  0.19030041875669707  0.06619579229752934  0.21578702527220367  1.0000
  N   N14       1.0  0.3096995815315223  0.5661957913792317  0.28421297503789694  1.0000
  N   N15       1.0  0.8096995818197417  0.9338042080476613  0.7842129753479975  1.0000
  N   N16       1.0  0.6903004189149791  0.4338042078750659  0.7157870249232055  1.0000
  N   N17       1.0  0.18629177690914173  0.8105868079981107  0.22467740162514294  1.0000
  N   N18       1.0  0.3137082232491403  0.31058680782551534  0.27532259802585896  1.0000
  N   N19       1.0  0.8137082235373596  0.189413191256187  0.7753225983359595  1.0000
  N   N20       1.0  0.6862917771973611  0.6894131914287823  0.7246774019352435  1.0000
  N   N21       1.0  0.04400859604514451  0.19282302791323605  0.13088635350852545  1.0000
  N   N22       1.0  0.45599140411313754  0.6928230280858314  0.3691136461424764  1.0000
  N   N23       1.0  0.9559914044013569  0.8071769724319545  0.8691136464525769  1.0000
  N   N24       1.0  0.544008596333364  0.30717697225935925  0.6308863538186261  1.0000
  O   O1        1.0  0.26411261019674354  0.07995703966168335  0.6144052978439771  1.0000
  O   O2        1.0  0.2358873902484367  0.5799570387433857  0.8855947018445745  1.0000
  O   O3        1.0  0.7358873902497579  0.9200429606835072  0.38559470211712543  1.0000
  O   O4        1.0  0.7641126101980646  0.4200429605109119  0.11440529811652796  1.0000
  O   O5        1.0  0.36216019530017585  0.2048694243690322  0.5016407241225644  1.0000
  O   O6        1.0  0.13783980428867884  0.7048694234507346  0.9983592755682568  1.0000
  O   O7        1.0  0.6378398042900001  0.7951305759761583  0.49835927584080764  1.0000
  O   O8        1.0  0.8621601953014971  0.2951305758035631  0.0016407243951153396  1.0000
  O   O9        1.0  0.050403527263419595  0.5634513481177981  0.40542306644204495  1.0000
  O   O10       1.0  0.44959647203853703  0.06345134794520282  0.09457693321122658  1.0000
  O   O11       1.0  0.9495964723267564  0.4365486522273924  0.5945769335213272  1.0000
  O   O12       1.0  0.5504035275516389  0.9365486513090948  0.9054230667521455  1.0000
  O   O13       1.0  0.8423712564938014  0.4859261814482563  0.3858799254181757  1.0000
  O   O14       1.0  0.6576287439540213  0.9859261816208515  0.11412007481547763  1.0000
  O   O15       1.0  0.1576287439527  0.5140738188969342  0.6141200745429267  1.0000
  O   O16       1.0  0.34237125649248024  0.014073818724338962  0.8858799251456247  1.0000
  O   O17       1.0  0.3349106664639086  0.9427282137613741  0.3015684101410696  1.0000
  O   O18       1.0  0.16508933382431074  0.4427282135887787  0.19843159016903097  1.0000
  O   O19       1.0  0.6650893339825928  0.05727178658381654  0.6984315898200328  1.0000
  O   O20       1.0  0.8349106666221907  0.5572717867564118  0.8015684097920714  1.0000
  F   F1        1.0  0.933117305336801  0.9297339459212528  0.079003659902669  1.0000
  F   F2        1.0  0.5668826941247589  0.42973394683955035  0.42099633967415534  1.0000
  F   F3        1.0  0.06688269425337494  0.07026605333304493  0.9209963400607031  1.0000
  F   F4        1.0  0.4331173054654171  0.5702660535056402  0.5790036602892168  1.0000
  S   S1        1.0  0.2800821721582542  0.09677988994298355  0.5231321804317259  1.0000
  S   S2        1.0  0.21991782743060048  0.5967798901155787  0.9768678192590953  1.0000
  S   S3        1.0  0.7199178274319218  0.903220109311314  0.47686781953164614  1.0000
  S   S4        1.0  0.7800821721595754  0.4032201091387188  0.02313218070427687  1.0000
  S   S5        1.0  0.9569370305071214  0.47267800283173667  0.36205515889346096  1.0000
  S   S6        1.0  0.5430629699407014  0.9726780030043319  0.1379448413401924  1.0000
  S   S7        1.0  0.043062970069317384  0.527321996422561  0.6379448417267402  1.0000
  S   S8        1.0  0.4569370296494746  0.027321997340858547  0.8620551586231797  1.0000
  Cl  Cl1       1.0  0.8196878027324082  0.18862858617560657  0.2666570770712988  1.0000
  Cl  Cl2       1.0  0.6803121977154144  0.6886285863482018  0.23334292316235455  1.0000
  Cl  Cl3       1.0  0.18031219771409318  0.8113714130786911  0.7333429228898036  1.0000
  Cl  Cl4       1.0  0.31968780273108705  0.3113714139969887  0.7666570767987478  1.0000
