data_image0
_chemical_formula_structural       H64C116N8F16I8
_chemical_formula_sum              "H64 C116 N8 F16 I8"
_cell_length_a       5.7751060465754245
_cell_length_b       8.080779566783853
_cell_length_c       50.596652599554915
_cell_angle_alpha    90.0
_cell_angle_beta     90.0
_cell_angle_gamma    90.0

_space_group_name_H-M_alt    "P 1"
_space_group_IT_number       1

loop_
  _space_group_symop_operation_xyz
  'x, y, z'

loop_
  _atom_site_type_symbol
  _atom_site_label
  _atom_site_symmetry_multiplicity
  _atom_site_fract_x
  _atom_site_fract_y
  _atom_site_fract_z
  _atom_site_occupancy
  H   H1        1.0  0.9587825912362984  0.25815908016784045  0.5243889270697208  1.0000
  H   H2        1.0  0.5412174087874005  0.741840920230159  0.024388927065322405  1.0000
  H   H3        1.0  0.04121740935669088  0.758159079748088  0.9756110729434744  1.0000
  H   H4        1.0  0.4587825900740187  0.24184091941240712  0.475611072939076  1.0000
  H   H5        1.0  0.12477964113357144  0.04537339089252344  0.6534123978844171  1.0000
  H   H6        1.0  0.3752203582971382  0.9546266095054761  0.1534123978800187  1.0000
  H   H7        1.0  0.8752203594594178  0.545373390472771  0.846587602128778  1.0000
  H   H8        1.0  0.624779640564281  0.4546266086877242  0.34658760212437967  1.0000
  H   H9        1.0  0.689152145069276  0.41658795320162506  0.6076341455495902  1.0000
  H   H10       1.0  0.8108478549544229  0.5834120459588701  0.1076341455451918  1.0000
  H   H11       1.0  0.31084785379214325  0.9165879540193771  0.892365854463605  1.0000
  H   H12       1.0  0.1891521456385664  0.08341204637862253  0.3923658544592066  1.0000
  H   H13       1.0  0.9566977619876407  0.37268858717286124  0.7159869414032871  1.0000
  H   H14       1.0  0.5433022380360581  0.6273114132251383  0.21598694139888877  1.0000
  H   H15       1.0  0.043302238605348514  0.8726885867531089  0.784013058609908  1.0000
  H   H16       1.0  0.4566977608253612  0.12731141240738636  0.2840130586055096  1.0000
  H   H17       1.0  0.08480190944552621  0.09792861733944722  0.6062048962557222  1.0000
  H   H18       1.0  0.41519809171675337  0.9020713830585523  0.10620489625132376  1.0000
  H   H19       1.0  0.915198091147463  0.5979286169196948  0.893795103757473  1.0000
  H   H20       1.0  0.5848019088762358  0.40207138347830473  0.39379510375307464  1.0000
  H   H21       1.0  0.01067156507654878  0.17954859528205824  0.5706557273366735  1.0000
  H   H22       1.0  0.48932843435416085  0.8204514051159414  0.0706557273322751  1.0000
  H   H23       1.0  0.9893284337848705  0.6795485948623059  0.9293442726765216  1.0000
  H   H24       1.0  0.5106715662388284  0.32045140429818936  0.4293442726721233  1.0000
  H   H25       1.0  0.6760500289540458  0.42931401869445335  0.568104021574203  1.0000
  H   H26       1.0  0.8239499710696533  0.5706859804660418  0.06810402156980465  1.0000
  H   H27       1.0  0.32394996990737357  0.9293140195122053  0.9318959784389922  1.0000
  H   H28       1.0  0.17605002952333604  0.07068598088579423  0.43189597843459376  1.0000
  H   H29       1.0  0.5920292064640871  0.49828745564984706  0.5218094503001223  1.0000
  H   H30       1.0  0.9079707935596116  0.5017125447481524  0.021809450295723856  1.0000
  H   H31       1.0  0.40797079239733214  0.9982874552300947  0.978190549713073  1.0000
  H   H32       1.0  0.0920292070333775  0.0017125439304004914  0.47819054970867453  1.0000
  H   H33       1.0  0.945950343758532  0.3274624345498843  0.6571158855732775  1.0000
  H   H34       1.0  0.5540496562651668  0.6725375658481153  0.15711588556887912  1.0000
  H   H35       1.0  0.054049656834457116  0.827462434130132  0.8428841144399176  1.0000
  H   H36       1.0  0.44595034259625255  0.17253756626786768  0.3428841144355193  1.0000
  H   H37       1.0  0.7738913422464769  0.5006682234756494  0.6643906233491762  1.0000
  H   H38       1.0  0.7261086577772219  0.49933177692235015  0.16439062334477772  1.0000
  H   H39       1.0  0.2261086583465123  0.0006682226578974857  0.8356093766640191  1.0000
  H   H40       1.0  0.2738913410841973  0.9993317765025977  0.33560937665962065  1.0000
  H   H41       1.0  0.2665737975344889  0.3992694929165243  0.7945592211045529  1.0000
  H   H42       1.0  0.2334262018962207  0.6007305062439708  0.2945592211001545  1.0000
  H   H43       1.0  0.7334262013269304  0.8992694937342762  0.7054407789086423  1.0000
  H   H44       1.0  0.7665737986967684  0.1007305066637233  0.20544077890424392  1.0000
  H   H45       1.0  0.23004446832414527  0.04491213465242983  0.704558078024189  1.0000
  H   H46       1.0  0.26995553110656434  0.9550878657455697  0.2045580780197907  1.0000
  H   H47       1.0  0.7699555305372741  0.5449121342326775  0.7954419219890061  1.0000
  H   H48       1.0  0.7300444694864249  0.45508786616532215  0.29544192198460767  1.0000
  H   H49       1.0  0.549941168938935  0.08224060618256634  0.7839082153104514  1.0000
  H   H50       1.0  0.950058831084764  0.9177593929779289  0.283908215306053  1.0000
  H   H51       1.0  0.4500588316540543  0.5822406070003183  0.7160917847027438  1.0000
  H   H52       1.0  0.04994116950822528  0.4177593933976812  0.21609178469834542  1.0000
  H   H53       1.0  0.1023551368983991  0.3785499808179364  0.7499884557646371  1.0000
  H   H54       1.0  0.3976448625323105  0.6214500195800631  0.2499884557602387  1.0000
  H   H55       1.0  0.8976448636945902  0.878549980398184  0.750011544248558  1.0000
  H   H56       1.0  0.6023551363291088  0.1214500187623112  0.2500115442441597  1.0000
  H   H57       1.0  0.7408355475198671  0.1162036796375239  0.8268372639412122  1.0000
  H   H58       1.0  0.7591644525038317  0.8837963207604757  0.3268372639368137  1.0000
  H   H59       1.0  0.2591644513415521  0.6162036792177715  0.6731627360719831  1.0000
  H   H60       1.0  0.24083554808915753  0.38379632118022805  0.17316273606758467  1.0000
  H   H61       1.0  0.41142074116698535  0.06387792238780754  0.7482288016091607  1.0000
  H   H62       1.0  0.08857925826372424  0.936122078010192  0.24822880160476235  1.0000
  H   H63       1.0  0.5885792576944339  0.5638779219680551  0.7517711984040344  1.0000
  H   H64       1.0  0.911420742329265  0.4361220784299444  0.251771198399636  1.0000
  C   C1        1.0  0.963893737206943  0.6337898290224443  0.44140613879655083  1.0000
  C   C2        1.0  0.5361062628167558  0.3662101713755552  0.9414061386033077  1.0000
  C   C3        1.0  0.03610626338604615  0.13378982820469235  0.05859386120784756  1.0000
  C   C4        1.0  0.46389373777623344  0.8662101709558029  0.558593861212246  1.0000
  C   C5        1.0  0.0853272781531362  0.6245982034637778  0.41764816750319744  1.0000
  C   C6        1.0  0.4146727212775735  0.3754017969342217  0.9176481675075958  1.0000
  C   C7        1.0  0.9146727224398531  0.12459820388353028  0.08235183250120096  1.0000
  C   C8        1.0  0.5853272775838458  0.8754017965144693  0.5823518325055993  1.0000
  C   C9        1.0  0.013297807759831413  0.699471675138096  0.39423863171089446  1.0000
  C   C10       1.0  0.4867021916708782  0.30052832402239915  0.8942386317152929  1.0000
  C   C11       1.0  0.9867021911015879  0.19947167555784845  0.10576136829350394  1.0000
  C   C12       1.0  0.513297808922111  0.8005283248401511  0.6057613682979023  1.0000
  C   C13       1.0  0.8057854474827303  0.7872582536652386  0.3949616890303093  1.0000
  C   C14       1.0  0.6942145525409685  0.21274174549525654  0.8949616890347077  1.0000
  C   C15       1.0  0.19421455311025887  0.287258254084991  0.10503831097408906  1.0000
  C   C16       1.0  0.30578544632045074  0.7127417463130085  0.6050383109784875  1.0000
  C   C17       1.0  0.7552332017498368  0.7204711416620341  0.44098793049792145  1.0000
  C   C18       1.0  0.744766798273862  0.27952885873596545  0.9409879305023199  1.0000
  C   C19       1.0  0.2447667988431524  0.2204711408442821  0.05901206950647691  1.0000
  C   C20       1.0  0.2552332023191272  0.779528858316213  0.5590120695108753  1.0000
  C   C21       1.0  0.675434670556929  0.7969864091421102  0.418040745845429  1.0000
  C   C22       1.0  0.82456532946677  0.2030135912558894  0.9180407458498274  1.0000
  C   C23       1.0  0.32456532830449036  0.29698640956186256  0.08195925415896939  1.0000
  C   C24       1.0  0.1754346711262193  0.7030135908361369  0.5819592541633678  1.0000
  C   C25       1.0  0.11577151217793971  0.29478241180981296  0.5348662650508635  1.0000
  C   C26       1.0  0.3842284872527699  0.7052175885881865  0.03486626504646512  1.0000
  C   C27       1.0  0.8842284866834795  0.7947824113900606  0.9651337349623317  1.0000
  C   C28       1.0  0.6157715133402193  0.205217589007939  0.4651337349579333  1.0000
  C   C29       1.0  0.2465102404213327  0.12842073978427057  0.643650399123172  1.0000
  C   C30       1.0  0.253489759009377  0.8715792593762246  0.14365039911877367  1.0000
  C   C31       1.0  0.7534897601716566  0.6284207406020226  0.8563496008900231  1.0000
  C   C32       1.0  0.7465102398520423  0.371579259795977  0.3563496008856248  1.0000
  C   C33       1.0  0.5892497648624012  0.3037909089972907  0.644198571553066  1.0000
  C   C34       1.0  0.9107502351612977  0.6962090914007089  0.14419857154866764  1.0000
  C   C35       1.0  0.4107502339990181  0.8037909085775382  0.8558014284601292  1.0000
  C   C36       1.0  0.08924976543169152  0.19620909058295685  0.35580142845573076  1.0000
  C   C37       1.0  0.4276105339164092  0.2028128655726066  0.6575957880718118  1.0000
  C   C38       1.0  0.0723894655143005  0.7971871348253929  0.15759578806741345  1.0000
  C   C39       1.0  0.5723894649450102  0.7028128651528541  0.8424042119413834  1.0000
  C   C40       1.0  0.9276105350786886  0.29718713524514534  0.34240421193698495  1.0000
  C   C41       1.0  0.6977221487368881  0.28782112180863195  0.689026992673161  1.0000
  C   C42       1.0  0.8022778512868107  0.7121788785893676  0.1890269926687627  1.0000
  C   C43       1.0  0.3022778518561011  0.7878211213888796  0.8109730071423925  1.0000
  C   C44       1.0  0.19772214930617843  0.21217887900911997  0.31097300733563565  1.0000
  C   C45       1.0  0.38192116165692197  0.26265746175337695  0.6030854719086383  1.0000
  C   C46       1.0  0.11807883777378769  0.7373425386446226  0.1030854719042398  1.0000
  C   C47       1.0  0.6180788389360673  0.7626574613336244  0.896914528104557  1.0000
  C   C48       1.0  0.8819211610876315  0.23734253782687065  0.39691452810015854  1.0000
  C   C49       1.0  0.5666069823843993  0.33404275759428126  0.617333504989118  1.0000
  C   C50       1.0  0.9333930176392994  0.6659572428037183  0.11733350498471956  1.0000
  C   C51       1.0  0.4333930182085898  0.8340427571745288  0.8826664950240772  1.0000
  C   C52       1.0  0.06660698295368978  0.16595724198596631  0.3826664950196788  1.0000
  C   C53       1.0  0.7990540749873192  0.2998518014227144  0.7137758097522383  1.0000
  C   C54       1.0  0.7009459250363795  0.7001481989752851  0.21377580974783988  1.0000
  C   C55       1.0  0.20094592560566998  0.7998518010029619  0.7862241902609569  1.0000
  C   C56       1.0  0.2990540738250397  0.20014819939503756  0.2862241902565585  1.0000
  C   C57       1.0  0.22547154277316594  0.15860861559302608  0.6167094352458109  1.0000
  C   C58       1.0  0.2745284566575437  0.8413913835674691  0.1167094352414125  1.0000
  C   C59       1.0  0.7745284560882533  0.6586086164107781  0.8832905647673842  1.0000
  C   C60       1.0  0.7254715439354454  0.3413913839872215  0.3832905647629859  1.0000
  C   C61       1.0  0.14728616117870125  0.2501802435386338  0.5611212035052641  1.0000
  C   C62       1.0  0.3527138382520084  0.7498197556218614  0.061121203500865674  1.0000
  C   C63       1.0  0.852713839414288  0.7501802443563858  0.9388787965079312  1.0000
  C   C64       1.0  0.6472861606094109  0.2498197560416138  0.43887879650353273  1.0000
  C   C65       1.0  0.5127151356390818  0.3879947688324145  0.5596932912563689  1.0000
  C   C66       1.0  0.9872848643846172  0.6120052315655851  0.05969329125197047  1.0000
  C   C67       1.0  0.48728486495390744  0.887994768412662  0.9403067087568264  1.0000
  C   C68       1.0  0.012715134476802196  0.11200523074783306  0.44030670875242794  1.0000
  C   C69       1.0  0.6982777748975373  0.21868142366656732  0.7357029332475534  1.0000
  C   C70       1.0  0.8017222251261616  0.7813185767314322  0.23570293324315508  1.0000
  C   C71       1.0  0.30172222569545204  0.7186814232468148  0.7642970667656417  1.0000
  C   C72       1.0  0.19827777373525757  0.28131857715118463  0.2642970667612433  1.0000
  C   C73       1.0  0.4668411936086841  0.4277552223065681  0.5334453089933746  1.0000
  C   C74       1.0  0.03315880755359546  0.5722447768539272  0.0334453089889762  1.0000
  C   C75       1.0  0.5331588069843051  0.92775522312432  0.9665546910198206  1.0000
  C   C76       1.0  0.9668411930393939  0.07224477727367952  0.4665546910154222  1.0000
  C   C77       1.0  0.770527758990457  0.3645611163691824  0.6632442615441956  1.0000
  C   C78       1.0  0.7294722410332417  0.6354388840288171  0.16324426153979715  1.0000
  C   C79       1.0  0.22947224160253213  0.86456111594943  0.8367557384689996  1.0000
  C   C80       1.0  0.2705277578281775  0.13543888444856952  0.3367557384646012  1.0000
  C   C81       1.0  0.49255349547854393  0.1946529771045385  0.6853513584079481  1.0000
  C   C82       1.0  0.007446503952165712  0.8053470232934611  0.18535135840354974  1.0000
  C   C83       1.0  0.5074465033828753  0.6946529766847861  0.814648641605247  1.0000
  C   C84       1.0  0.9925534966408236  0.30534702247570905  0.3146486416008486  1.0000
  C   C85       1.0  0.3489293501709696  0.29896929745870165  0.5746447718609702  1.0000
  C   C86       1.0  0.15107065099130998  0.7010307029392979  0.07464477185657187  1.0000
  C   C87       1.0  0.6510706504220197  0.7989692970389493  0.9253552281522249  1.0000
  C   C88       1.0  0.8489293496016793  0.20103070335905032  0.4253552281478265  1.0000
  C   C89       1.0  0.10807954779810955  0.3287407629481073  0.7913433384000628  1.0000
  C   C90       1.0  0.3919204516326001  0.6712592374498922  0.2913433383956644  1.0000
  C   C91       1.0  0.8919204527948797  0.8287407625283548  0.7086566616131323  1.0000
  C   C92       1.0  0.6080795472288192  0.17125923663214027  0.20865666160873397  1.0000
  C   C93       1.0  0.8061542632209735  0.22885100437605654  0.7621026215939669  1.0000
  C   C94       1.0  0.6938457368027254  0.771148996021943  0.26210262158956854  1.0000
  C   C95       1.0  0.19384573737201577  0.7288510039563041  0.7378973784192283  1.0000
  C   C96       1.0  0.3061542637902638  0.27114899520419106  0.23789737841482986  1.0000
  C   C97       1.0  0.38906654040273214  0.1156720428115846  0.7069241454189529  1.0000
  C   C98       1.0  0.11093345902797751  0.8843279575864149  0.20692414541455456  1.0000
  C   C99       1.0  0.6109334601902571  0.6156720423918322  0.7930758545942422  1.0000
  C   C100      1.0  0.8890665398334417  0.3843279580061673  0.29307585458984386  1.0000
  C   C101      1.0  0.7094120535551784  0.153996326680555  0.7847576406734323  1.0000
  C   C102      1.0  0.7905879464685204  0.8460036724799401  0.2847576406690339  1.0000
  C   C103      1.0  0.2905879453062408  0.6539963274983069  0.7152423593397628  1.0000
  C   C104      1.0  0.2094120541244688  0.3460036728996926  0.21524235933536445  1.0000
  C   C105      1.0  0.0135975944626274  0.31671507171412694  0.7661670497613318  1.0000
  C   C106      1.0  0.4864024066996522  0.6832849274463683  0.2661670497569333  1.0000
  C   C107      1.0  0.9864024061303619  0.8167150725318789  0.7338329502518636  1.0000
  C   C108      1.0  0.513597593893337  0.18328492786612063  0.23383295024746512  1.0000
  C   C109      1.0  0.8164421989784877  0.17220686550095346  0.809231952043408  1.0000
  C   C110      1.0  0.6835578010452111  0.8277931336595417  0.3092319520390097  1.0000
  C   C111      1.0  0.18355780161450153  0.6722068663187054  0.6907680479697871  1.0000
  C   C112      1.0  0.3164421978162081  0.3277931340792941  0.1907680479653887  1.0000
  C   C113      1.0  0.4922011002179917  0.12809112925870342  0.7317150868262315  1.0000
  C   C114      1.0  0.007798900944287928  0.8719088699017917  0.23171508682183323  1.0000
  C   C115      1.0  0.5077989003749976  0.6280911300764553  0.7682849131869636  1.0000
  C   C116      1.0  0.9922010996487013  0.3719088703215442  0.26828491318256514  1.0000
  N   N1        1.0  0.2700298171883333  0.3844767208810936  0.5211302334303426  1.0000
  N   N2        1.0  0.22997018224237636  0.6155232782794016  0.021130233425944167  1.0000
  N   N3        1.0  0.729970183404656  0.8844767216988456  0.9788697665828526  1.0000
  N   N4        1.0  0.7700298166190429  0.115523278699154  0.4788697665784542  1.0000
  N   N5        1.0  0.01264866816485843  0.2590211492222464  0.8128431883725404  1.0000
  N   N6        1.0  0.4873513312658512  0.7409788511757531  0.312843188368142  1.0000
  N   N7        1.0  0.9873513324281308  0.7590211488024939  0.6871568116406547  1.0000
  N   N8        1.0  0.512648667595568  0.24097885159550556  0.18715681163625636  1.0000
  F   F1        1.0  0.7279380250502723  0.8675978514273868  0.3732067387826781  1.0000
  F   F2        1.0  0.7720619749734267  0.13240214897061284  0.8732067387870764  1.0000
  F   F3        1.0  0.27206197381114705  0.36759785060963474  0.12679326122172033  1.0000
  F   F4        1.0  0.2279380256195626  0.6324021485508604  0.6267932612261187  1.0000
  F   F5        1.0  0.6266177886284703  0.7356654244642399  0.4631238824326124  1.0000
  F   F6        1.0  0.8733822113952285  0.26433457469625526  0.9631238824370109  1.0000
  F   F7        1.0  0.373382211964519  0.23566542488399228  0.03687611757178602  1.0000
  F   F8        1.0  0.12661778919776065  0.7643345755140072  0.5368761175761844  1.0000
  F   F9        1.0  0.28894247422339636  0.5390621231527669  0.41727230667006066  1.0000
  F   F10       1.0  0.21105752693888322  0.4609378760077283  0.917272306674459  1.0000
  F   F11       1.0  0.7110575263695929  0.039062123572519314  0.08272769333433772  1.0000
  F   F12       1.0  0.788942473654106  0.9609378768254802  0.5827276933387361  1.0000
  F   F13       1.0  0.47496404011949706  0.88419264514645  0.4183462864139396  1.0000
  F   F14       1.0  0.025035959311212566  0.1158073552515495  0.9183462864183379  1.0000
  F   F15       1.0  0.5250359604734921  0.38419264432869804  0.08165371359045881  1.0000
  F   F16       1.0  0.9749640395502067  0.615807354831797  0.5816537135948572  1.0000
  I   I1        1.0  0.21697546328920642  0.6962532084313806  0.35970113208951887  1.0000
  I   I2        1.0  0.28302453614150325  0.3037467919666189  0.8597011320939173  1.0000
  I   I3        1.0  0.7830245355722129  0.19625320885113307  0.14029886791487953  1.0000
  I   I4        1.0  0.716975464451486  0.8037467915468665  0.6402988679192778  1.0000
  I   I5        1.0  0.09835190997692822  0.5283023865108473  0.47671110658044163  1.0000
  I   I6        1.0  0.40164809118535133  0.47169761264964793  0.9767111065848401  1.0000
  I   I7        1.0  0.901648090616061  0.028302386930599645  0.02328889342395678  1.0000
  I   I8        1.0  0.5983519094076378  0.9716976134673999  0.5232888934283552  1.0000
