data_image0
_chemical_formula_structural       H26C42N6F6I6
_chemical_formula_sum              "H26 C42 N6 F6 I6"
_cell_length_a       9.002167865283626
_cell_length_b       10.11315634611225
_cell_length_c       13.205562238639207
_cell_angle_alpha    76.27694656289137
_cell_angle_beta     77.87841296683033
_cell_angle_gamma    69.60219240654241

_space_group_name_H-M_alt    "P 1"
_space_group_IT_number       1

loop_
  _space_group_symop_operation_xyz
  'x, y, z'

loop_
  _atom_site_type_symbol
  _atom_site_label
  _atom_site_symmetry_multiplicity
  _atom_site_fract_x
  _atom_site_fract_y
  _atom_site_fract_z
  _atom_site_occupancy
  H   H1        1.0  0.5575278476698752  0.18166063911409266  0.4095625225537052  1.0000
  H   H2        1.0  0.4424721525642222  0.8183393605779896  0.5904374778323144  1.0000
  H   H3        1.0  0.47063759319056164  0.04634570923752509  0.6128470119507112  1.0000
  H   H4        1.0  0.5293624059338062  0.9536542904528261  0.3871529884339053  1.0000
  H   H5        1.0  0.8636328597096294  0.04647286749220471  0.9550784940566766  1.0000
  H   H6        1.0  0.1363671406951762  0.953527132388297  0.04492150554210778  1.0000
  H   H7        1.0  0.09061217403121274  0.14697420194403887  0.9224175318982796  1.0000
  H   H8        1.0  0.9093878262028847  0.8530257977480434  0.07758246848774003  1.0000
  H   H9        1.0  0.08008545367901664  0.19725110947930927  0.5893180070468644  1.0000
  H   H10       1.0  0.9199145461403962  0.8027488912683691  0.4106819933365223  1.0000
  H   H11       1.0  0.8481390908409094  0.10555086534172055  0.6369386462362095  1.0000
  H   H12       1.0  0.15186090939318792  0.8944491343503618  0.36306135414981006  1.0000
  H   H13       1.0  0.20405567213004897  0.3395008000170683  0.7610239980531707  1.0000
  H   H14       1.0  0.7959443281040485  0.6604991996750139  0.23897600233284896  1.0000
  H   H15       1.0  0.3396181712626608  0.16390741623482116  0.778205834285563  1.0000
  H   H16       1.0  0.660381827861707  0.8360925834555298  0.22179416609905359  1.0000
  H   H17       1.0  0.974328276054868  0.443529761222155  0.6485749785602641  1.0000
  H   H18       1.0  0.025671724349937693  0.5564702386583467  0.3514250210385203  1.0000
  H   H19       1.0  0.7885349361174168  0.6756909225253588  0.6847181794735977  1.0000
  H   H20       1.0  0.21146506428738915  0.3243090773551429  0.3152818201251866  1.0000
  H   H21       1.0  0.8740096916392003  0.8934529363644783  0.6321647080119323  1.0000
  H   H22       1.0  0.1259903087656054  0.10654706351602343  0.36783529158685213  1.0000
  H   H23       1.0  0.15346953465684332  0.87562802053086  0.5448570055282531  1.0000
  H   H24       1.0  0.8465304655772541  0.12437197916122236  0.4551429948577664  1.0000
  H   H25       1.0  0.3423490537081322  0.6404035880042908  0.5075613576333649  1.0000
  H   H26       1.0  0.6576509465259652  0.35959641168779155  0.4924386427526547  1.0000
  C   C1        1.0  0.28820445790847304  0.3886810015904267  0.5532336171654486  1.0000
  C   C2        1.0  0.7117955408012103  0.6113189991555203  0.4467663832165351  1.0000
  C   C3        1.0  0.47095551528487123  0.2254995637004112  0.4734319259411913  1.0000
  C   C4        1.0  0.5290444849492262  0.7745004359916711  0.5265680744448282  1.0000
  C   C5        1.0  0.42901455932167065  0.1564977453197509  0.5727916889871683  1.0000
  C   C6        1.0  0.5709854406684507  0.8435022556163467  0.42720831060898334  1.0000
  C   C7        1.0  0.9162059344688006  0.08049640988568459  0.8750772730967246  1.0000
  C   C8        1.0  0.08379406593600516  0.9195035899948171  0.12492272650205984  1.0000
  C   C9        1.0  0.04313199175951355  0.1352872329965759  0.8566416708429113  1.0000
  C   C10       1.0  0.956868007535563  0.8647127668821945  0.14335832875447005  1.0000
  C   C11       1.0  0.10723195752202452  0.1771402631751815  0.7526596326943894  1.0000
  C   C12       1.0  0.8927680416023432  0.8228597365151696  0.24734036769022713  1.0000
  C   C13       1.0  0.037560821372429075  0.1645158845609276  0.671932949576757  1.0000
  C   C14       1.0  0.9624391788616683  0.8354841151311547  0.32806705080926274  1.0000
  C   C15       1.0  0.9081343181542091  0.11155313969299759  0.6984176343248023  1.0000
  C   C16       1.0  0.09186568225059683  0.8884468601875041  0.301582365273982  1.0000
  C   C17       1.0  0.2442423039218313  0.23703165186525124  0.73276803302758  1.0000
  C   C18       1.0  0.7557576952025367  0.7629683478250998  0.2672319673570366  1.0000
  C   C19       1.0  0.1729071589074708  0.5255739347864962  0.5757120329715267  1.0000
  C   C20       1.0  0.8270928414973352  0.4744260650940055  0.4242879666272576  1.0000
  C   C21       1.0  0.016243612892258504  0.5367013556101727  0.6261837867057809  1.0000
  C   C22       1.0  0.9837563858174247  0.4632986451357741  0.3738162136762029  1.0000
  C   C23       1.0  0.9095571107543453  0.6690242565541117  0.6456704541361499  1.0000
  C   C24       1.0  0.09044288965046066  0.33097574332638996  0.3543295454626344  1.0000
  C   C25       1.0  0.957919348389483  0.7912624803766849  0.6152714157173613  1.0000
  C   C26       1.0  0.04208065184461449  0.20873751931539744  0.3847285846686583  1.0000
  C   C27       1.0  0.11362982596559645  0.7811079471405745  0.5655385313764688  1.0000
  C   C28       1.0  0.8863701742685008  0.21889205255150784  0.43446146900955074  1.0000
  C   C29       1.0  0.22019488309957344  0.6495202021699849  0.5448429236601742  1.0000
  C   C30       1.0  0.7798051171345238  0.3504797975220975  0.4551570767258455  1.0000
  C   C31       1.0  0.3985662889592272  0.6269235644554371  0.10114925011363554  1.0000
  C   C32       1.0  0.6014337110308943  0.37307643648066063  0.898850749482516  1.0000
  C   C33       1.0  0.49611342723765295  0.7094473081744223  0.046948869227546035  1.0000
  C   C34       1.0  0.5038865731671529  0.29055269170607945  0.9530511303712383  1.0000
  C   C35       1.0  0.48609856338800717  0.781726311923695  0.9430838638768638  1.0000
  C   C36       1.0  0.5139014370167987  0.2182736879568065  0.056916135721920454  1.0000
  C   C37       1.0  0.37269547153395427  0.7672469432172222  0.8924987691394685  1.0000
  C   C38       1.0  0.6273045288708515  0.2327530566632796  0.1075012304593159  1.0000
  C   C39       1.0  0.2734799225030374  0.6834505601255363  0.9413606078091145  1.0000
  C   C40       1.0  0.7265200777310601  0.31654943956654596  0.058639392576905106  1.0000
  C   C41       1.0  0.289715130573968  0.6147588989229652  0.04545185996648195  1.0000
  C   C42       1.0  0.7102848698308379  0.3852411009575365  0.9545481396323023  1.0000
  N   N1        1.0  0.3134463616117652  0.26068831045266255  0.6229662571403795  1.0000
  N   N2        1.0  0.6865536386223322  0.7393116892394198  0.37703374324564015  1.0000
  N   N3        1.0  0.38486225967923837  0.36905372240391665  0.4625385708436193  1.0000
  N   N4        1.0  0.6151377396158378  0.6309462774748538  0.537461428753762  1.0000
  N   N5        1.0  0.8490765391862751  0.06802177884266707  0.7976013556997691  1.0000
  N   N6        1.0  0.1509234601088011  0.9319782210361032  0.2023986438976123  1.0000
  F   F1        1.0  0.6061948993788567  0.7204461433621195  0.09813808863742064  1.0000
  F   F2        1.0  0.39380510061126467  0.2795538575739782  0.9018619109587309  1.0000
  F   F3        1.0  0.3571986394506811  0.8382637544046687  0.7919858022111729  1.0000
  F   F4        1.0  0.6428013605394401  0.16173624653142904  0.2080141973849788  1.0000
  F   F5        1.0  0.19262531169690766  0.5351006165730242  0.09519017353942584  1.0000
  F   F6        1.0  0.8073746887078981  0.46489938330747743  0.9048098260593586  1.0000
  I   I1        1.0  0.4039294162928725  0.5291879060699374  0.26155090333544717  1.0000
  I   I2        1.0  0.5960705839412248  0.4708120936221448  0.7384490970505725  1.0000
  I   I3        1.0  0.6362693976406201  0.9089375057924007  0.8688300160028883  1.0000
  I   I4        1.0  0.3637306025934773  0.09106249389968164  0.13116998438313118  1.0000
  I   I5        1.0  0.10303149394903012  0.6655975769364432  0.864540154976056  1.0000
  I   I6        1.0  0.8969685060410912  0.3344024239996545  0.13545984462009542  1.0000
