data_image0
_chemical_formula_structural       H30C54N6F16I8
_chemical_formula_sum              "H30 C54 N6 F16 I8"
_cell_length_a       8.155274369594085
_cell_length_b       13.86582051964396
_cell_length_c       14.789254453795264
_cell_angle_alpha    108.84467369868165
_cell_angle_beta     101.43290197737034
_cell_angle_gamma    103.11792001662664

_space_group_name_H-M_alt    "P 1"
_space_group_IT_number       1

loop_
  _space_group_symop_operation_xyz
  'x, y, z'

loop_
  _atom_site_type_symbol
  _atom_site_label
  _atom_site_symmetry_multiplicity
  _atom_site_fract_x
  _atom_site_fract_y
  _atom_site_fract_z
  _atom_site_occupancy
  H   H1        1.0  0.4367537387825511  0.4731927171836941  0.06626839034988012  1.0000
  H   H2        1.0  0.5632462616006175  0.5268072830297402  0.933731609122121  1.0000
  H   H3        1.0  0.8691501175044843  0.6793580593766335  0.40824503706109183  1.0000
  H   H4        1.0  0.13084988298943573  0.3206419404043539  0.5917549631576031  1.0000
  H   H5        1.0  0.4421385890166311  0.31852427500631897  0.3324968363835535  1.0000
  H   H6        1.0  0.5578614117593925  0.6814757255155749  0.6675031638360828  1.0000
  H   H7        1.0  0.9900733152736525  0.6956453977765127  0.5719371654972459  1.0000
  H   H8        1.0  0.009926683994726168  0.30435460200325504  0.42806283472454315  1.0000
  H   H9        1.0  0.9961355938435782  0.5728869275181043  0.584085414483194  1.0000
  H   H10       1.0  0.003864406932445407  0.4271130730037895  0.41591458573644235  1.0000
  H   H11       1.0  0.8399299962025187  0.632516348804103  0.6235137418314416  1.0000
  H   H12       1.0  0.16007000429140122  0.36748365097688435  0.37648625838725347  1.0000
  H   H13       1.0  0.5691617127592752  0.3274719055801922  0.49335026314151986  1.0000
  H   H14       1.0  0.4308382877346447  0.6725280942007951  0.5066497370771751  1.0000
  H   H15       1.0  0.6476562133216809  0.458239901718174  0.5884549038763631  1.0000
  H   H16       1.0  0.352343787172239  0.5417600980628132  0.4115450963423318  1.0000
  H   H17       1.0  0.7990025374610238  0.39678745003622456  0.5437272430126916  1.0000
  H   H18       1.0  0.2009974616966035  0.6032125501759903  0.4562727564624037  1.0000
  H   H19       1.0  0.08587248667559966  0.15181353179501866  0.16755218048427925  1.0000
  H   H20       1.0  0.914127513707569  0.8481864684184156  0.8324478189877219  1.0000
  H   H21       1.0  0.12553625753850675  0.46144374007721956  0.15215732813399704  1.0000
  H   H22       1.0  0.8744637432375169  0.5385562604446742  0.8478426720856391  1.0000
  H   H23       1.0  0.8441718258748987  0.45034624317486155  0.19696612603073624  1.0000
  H   H24       1.0  0.15582817490112486  0.5496537573470321  0.8030338741889  1.0000
  H   H25       1.0  0.6969877018860723  0.28830497334744715  0.22548585976322502  1.0000
  H   H26       1.0  0.30301229888995124  0.7116950271744465  0.7745141404564112  1.0000
  H   H27       1.0  0.3363107589628512  0.23890785415205007  0.1326966879315025  1.0000
  H   H28       1.0  0.6636892415310689  0.7610921456289372  0.8673033122871925  1.0000
  H   H29       1.0  0.2654380958983553  0.2909946032799396  0.04323336809729064  1.0000
  H   H30       1.0  0.7345619044848133  0.7090053969334947  0.9567666313747106  1.0000
  C   C1        1.0  0.49372863070529094  0.4824499046893766  0.1427076436914961  1.0000
  C   C2        1.0  0.5062713697886291  0.5175500950916108  0.8572923565271988  1.0000
  C   C3        1.0  0.6530705811610694  0.5429845997516309  0.29710513940285055  1.0000
  C   C4        1.0  0.3469294181073093  0.4570154000281368  0.7028948608189385  1.0000
  C   C5        1.0  0.7764262894960389  0.6010361977293683  0.39136065530304165  1.0000
  C   C6        1.0  0.22357370966158843  0.39896380248284646  0.6086393441720538  1.0000
  C   C7        1.0  0.7787716055683671  0.5566392601835632  0.4637090452835538  1.0000
  C   C8        1.0  0.22122839398211525  0.44336074033711104  0.5362909549391766  1.0000
  C   C9        1.0  0.6590542190376126  0.45370569098021524  0.44225678734999513  1.0000
  C   C10       1.0  0.34094578134555603  0.5462943092332191  0.5577432121220062  1.0000
  C   C11       1.0  0.5339829847614757  0.3964862493818103  0.3486199918553823  1.0000
  C   C12       1.0  0.46601701562169284  0.6035137508316241  0.6513800076166189  1.0000
  C   C13       1.0  0.5329758595566642  0.44228513003570175  0.27739658804438666  1.0000
  C   C14       1.0  0.4670241393188596  0.5577148694356066  0.7226034114297675  1.0000
  C   C15       1.0  0.9083423482547631  0.6178595252082116  0.565758053233383  1.0000
  C   C16       1.0  0.09165765184630176  0.3821404742643162  0.4342419462376769  1.0000
  C   C17       1.0  0.6686307896872604  0.4063356240622049  0.520614904028997  1.0000
  C   C18       1.0  0.3313692104138045  0.5936643754103231  0.479385095442063  1.0000
  C   C19       1.0  0.03493425307696193  0.21920237815109592  0.1726890640064376  1.0000
  C   C20       1.0  0.9650657461914168  0.7807976216286718  0.8273109362153515  1.0000
  C   C21       1.0  0.1258973330623714  0.3056768683135437  0.15406817007947288  1.0000
  C   C22       1.0  0.8741026674315486  0.6943231314674436  0.845931830139222  1.0000
  C   C23       1.0  0.05748295159765405  0.39106541772482883  0.16367565479722898  1.0000
  C   C24       1.0  0.9425170491783695  0.6089345827970649  0.8363243454224072  1.0000
  C   C25       1.0  0.9011003549172407  0.3853859758123799  0.18885564229808252  1.0000
  C   C26       1.0  0.0988996455766792  0.6146140239686074  0.8111443579206125  1.0000
  C   C27       1.0  0.818749975291444  0.2949649504473154  0.2044830219327019  1.0000
  C   C28       1.0  0.1812500239769346  0.7050350493324522  0.795516978289087  1.0000
  C   C29       1.0  0.2911932182111232  0.3048594922548788  0.12297431113967795  1.0000
  C   C30       1.0  0.7088067822827966  0.6951405075261086  0.8770256890790169  1.0000
  C   C31       1.0  0.0919610350934194  0.7498442503957504  0.11390886510233475  1.0000
  C   C32       1.0  0.9080389654005006  0.2501557493852369  0.8860911351163603  1.0000
  C   C33       1.0  0.10231784187714725  0.8493525766415594  0.10622386433152327  1.0000
  C   C34       1.0  0.8976821588988764  0.15064742388033442  0.893776135888113  1.0000
  C   C35       1.0  0.2345594653050912  0.8962101276273661  0.0721431959153713  1.0000
  C   C36       1.0  0.7654405342453913  0.10378987289330825  0.9278568043073591  1.0000
  C   C37       1.0  0.35700775403814683  0.8455307277570994  0.045038298755321254  1.0000
  C   C38       1.0  0.642992246062918  0.15446927171542849  0.9549617007157387  1.0000
  C   C39       1.0  0.34753427919797253  0.747239003259398  0.0531046506591011  1.0000
  C   C40       1.0  0.6524657209030924  0.25276099621312986  0.9468953488119588  1.0000
  C   C41       1.0  0.21561236596425803  0.7005700291690622  0.08710377561045651  1.0000
  C   C42       1.0  0.7843876348117654  0.2994299713528316  0.9128962246091796  1.0000
  C   C43       1.0  0.47280138435334906  0.016429065895049916  0.335246461013039  1.0000
  C   C44       1.0  0.527198616140571  0.9835709338859374  0.6647535392056558  1.0000
  C   C45       1.0  0.463911104424801  0.9203520039938177  0.3501681164723988  1.0000
  C   C46       1.0  0.5360888948435776  0.07964799578594992  0.6498318837493902  1.0000
  C   C47       1.0  0.3328176868396512  0.8793179459623311  0.3881781962155037  1.0000
  C   C48       1.0  0.6671823127108312  0.120682054558343  0.6118218040072266  1.0000
  C   C49       1.0  0.20937147796710726  0.9308117611873062  0.41108442205155477  1.0000
  C   C50       1.0  0.7906285221339576  0.06918823828522169  0.5889155774195052  1.0000
  C   C51       1.0  0.21680788494714406  0.025649738193575248  0.3960192514047185  1.0000
  C   C52       1.0  0.7831921158288795  0.9743502623283187  0.6039807488149178  1.0000
  C   C53       1.0  0.3480239282174048  0.06675008997898103  0.35838990598655623  1.0000
  C   C54       1.0  0.6519760710509739  0.9332499098007866  0.6416100942352327  1.0000
  N   N1        1.0  0.43342535204908894  0.405531598153321  0.1780138279304072  1.0000
  N   N2        1.0  0.566574648444831  0.5944684016276663  0.8219861722882877  1.0000
  N   N3        1.0  0.6248181791086499  0.5654650661638753  0.21116003435924674  1.0000
  N   N4        1.0  0.3751818216673737  0.4345349343580185  0.7888399658603895  1.0000
  N   N5        1.0  0.8842097687755469  0.2132649341123766  0.19732261800736  1.0000
  N   N6        1.0  0.11579023049283182  0.786735065667391  0.802677382214429  1.0000
  F   F1        1.0  0.24715894084827433  0.9914999997632213  0.0632736626128203  1.0000
  F   F2        1.0  0.7528410599277493  0.008500000758672582  0.936726337606816  1.0000
  F   F3        1.0  0.4816369545669151  0.8896705430340056  0.009815616117948858  1.0000
  F   F4        1.0  0.5183630459270049  0.11032945674698173  0.990184384100746  1.0000
  F   F5        1.0  0.4642016480714164  0.6969369019242542  0.026130697892179436  1.0000
  F   F6        1.0  0.5357983511969623  0.30306309785551366  0.9738693023296096  1.0000
  F   F7        1.0  0.2101516196493933  0.6035444799618696  0.0913559517586719  1.0000
  F   F8        1.0  0.7898483796189854  0.39645551981789806  0.9086440484631171  1.0000
  F   F9        1.0  0.32005412921370646  0.7872707141767697  0.4037620952621237  1.0000
  F   F10       1.0  0.679945870336776  0.2127292863439044  0.5962379049606066  1.0000
  F   F11       1.0  0.08378349658385036  0.888778613363444  0.44678433732356  1.0000
  F   F12       1.0  0.9162165035172146  0.11122138610908397  0.5532156621475  1.0000
  F   F13       1.0  0.09780858972274856  0.07604026759784871  0.41589656439358036  1.0000
  F   F14       1.0  0.9021914106604202  0.9239597326155858  0.5841034350784209  1.0000
  F   F15       1.0  0.3473527888561609  0.15823089379643518  0.34332890030418317  1.0000
  F   F16       1.0  0.6526472104122177  0.8417691059833325  0.6566710999176059  1.0000
  I   I1        1.0  0.8896667175006315  0.6692938205335789  0.15966253147234588  1.0000
  I   I2        1.0  0.11033328176774708  0.3307061792461888  0.840337468749443  1.0000
  I   I3        1.0  0.9214288949313183  0.9302441488777626  0.14267779091221083  1.0000
  I   I4        1.0  0.07857110584470539  0.06975585164413119  0.8573222093074255  1.0000
  I   I5        1.0  0.6617398547270472  0.08902540423863357  0.27765678807657024  1.0000
  I   I6        1.0  0.33826014604897636  0.9109745962832602  0.7223432121430661  1.0000
  I   I7        1.0  0.6323373807043992  0.8306841851905682  0.31314144969314955  1.0000
  I   I8        1.0  0.3676626185639796  0.16931581458919961  0.6868585505286395  1.0000
