data_image0
_chemical_formula_structural       H30C42N6F8I4
_chemical_formula_sum              "H30 C42 N6 F8 I4"
_cell_length_a       6.329796019536119
_cell_length_b       9.000442607872627
_cell_length_c       19.15052547251016
_cell_angle_alpha    102.09946543599182
_cell_angle_beta     96.58674044063112
_cell_angle_gamma    98.40030081099844

_space_group_name_H-M_alt    "P 1"
_space_group_IT_number       1

loop_
  _space_group_symop_operation_xyz
  'x, y, z'

loop_
  _atom_site_type_symbol
  _atom_site_label
  _atom_site_symmetry_multiplicity
  _atom_site_fract_x
  _atom_site_fract_y
  _atom_site_fract_z
  _atom_site_occupancy
  H   H1        1.0  0.08127017524359892  0.4456629539379301  0.06385081324073019  1.0000
  H   H2        1.0  0.9187298256046066  0.5543370454180266  0.9361491866592251  1.0000
  H   H3        1.0  0.005484643169132394  0.821994426347452  0.289693246433959  1.0000
  H   H4        1.0  0.994515357916322  0.17800557327494645  0.7103067540061668  1.0000
  H   H5        1.0  0.67419883046316  0.5816465406555016  0.278850822682831  1.0000
  H   H6        1.0  0.3258011706222946  0.41835345896689696  0.7211491777572949  1.0000
  H   H7        1.0  0.15057110826075076  0.9740207337092136  0.40541403947022253  1.0000
  H   H8        1.0  0.8494288912389266  0.025979266768136097  0.5945859604275441  1.0000
  H   H9        1.0  0.4354387160727246  0.016831874448769935  0.427819800902957  1.0000
  H   H10       1.0  0.564561284775481  0.9831681249071866  0.5721801989969983  1.0000
  H   H11       1.0  0.28729262439479986  0.8685800111453408  0.4592293518383115  1.0000
  H   H12       1.0  0.7127073748726002  0.13141998820904516  0.5407706480597431  1.0000
  H   H13       1.0  0.6323418698847106  0.7724556341272323  0.4560884573186537  1.0000
  H   H14       1.0  0.3676581296199381  0.22754436549359552  0.5439115431195712  1.0000
  H   H15       1.0  0.7597417907221429  0.9102467400391965  0.4144275314241593  1.0000
  H   H16       1.0  0.24025821035834002  0.08975326043972387  0.5855724684755081  1.0000
  H   H17       1.0  0.8169100404146689  0.7193318991252515  0.3964134955565025  1.0000
  H   H18       1.0  0.18308995908500852  0.280668101352098  0.603586504341264  1.0000
  H   H19       1.0  0.8624717274892048  0.3733712378051965  0.20099319637113414  1.0000
  H   H20       1.0  0.13752827201047269  0.6266287626721532  0.7990068035266324  1.0000
  H   H21       1.0  0.19067230838904367  0.16365168131401642  0.14446491481437487  1.0000
  H   H22       1.0  0.8093276926914393  0.8363483191649039  0.8555350850852925  1.0000
  H   H23       1.0  0.27315912322353514  0.962004304990233  0.2102205420590925  1.0000
  H   H24       1.0  0.7268408762761424  0.03799569548711654  0.7897794578386741  1.0000
  H   H25       1.0  0.6495849310624999  0.9787776035557547  0.27043639414521753  1.0000
  H   H26       1.0  0.35041507001798317  0.021222396923165725  0.72956360575445  1.0000
  H   H27       1.0  0.6435719367684776  0.4836613468902237  0.12893688168422957  1.0000
  H   H28       1.0  0.35642806249892234  0.5163386524641621  0.8710631182138248  1.0000
  H   H29       1.0  0.42614785251118786  0.35855619939709416  0.06833830346645765  1.0000
  H   H30       1.0  0.5738521488065439  0.641443801348268  0.9316616969733802  1.0000
  C   C1        1.0  0.140203956699091  0.5103683015339838  0.1190301542481912  1.0000
  C   C2        1.0  0.8597960428005864  0.4896316989433657  0.8809698456495754  1.0000
  C   C3        1.0  0.17231757810195075  0.6623899716914403  0.22508043959135962  1.0000
  C   C4        1.0  0.8276824211654493  0.3376100276629458  0.774919560306695  1.0000
  C   C5        1.0  0.14928702702614188  0.7685801126684442  0.2872916887331932  1.0000
  C   C6        1.0  0.8507129724735355  0.23141988780890532  0.7127083111645733  1.0000
  C   C7        1.0  0.3159126957555642  0.8078055869890556  0.3459024559538786  1.0000
  C   C8        1.0  0.684087303511836  0.19219441236533047  0.654097543944176  1.0000
  C   C9        1.0  0.5068530406143177  0.7406140049293114  0.3426242592854349  1.0000
  C   C10       1.0  0.49314695865308233  0.25938599442507465  0.6573757406126196  1.0000
  C   C11       1.0  0.5293016500065932  0.6333681449558993  0.28091350865642223  1.0000
  C   C12       1.0  0.47069834949308414  0.36663185552145017  0.7190864912413444  1.0000
  C   C13       1.0  0.361317194028388  0.59607896280253  0.22290376337181303  1.0000
  C   C14       1.0  0.6386828054712893  0.40392103767481946  0.7770962365259536  1.0000
  C   C15       1.0  0.29575783051767895  0.9226819097382414  0.41297126537564816  1.0000
  C   C16       1.0  0.7042421703305266  0.07731808961771519  0.5870287345243071  1.0000
  C   C17       1.0  0.6880154478747121  0.7873157939394053  0.40530302586247596  1.0000
  C   C18       1.0  0.31198455297349353  0.21268420541655136  0.5946969740374793  1.0000
  C   C19       1.0  0.728121423930082  0.2820242477342727  0.20093404462859138  1.0000
  C   C20       1.0  0.2718785753373182  0.7179757516201133  0.7990659552694631  1.0000
  C   C21       1.0  0.5230848794103053  0.28201871567688086  0.16516314027210208  1.0000
  C   C22       1.0  0.47691512008937204  0.7179812848004687  0.8348368596256646  1.0000
  C   C23       1.0  0.3551416979440751  0.1659274564140446  0.16912831825594377  1.0000
  C   C24       1.0  0.6448583015556023  0.834072544063305  0.8308716816418229  1.0000
  C   C25       1.0  0.3998803360004092  0.054021836868263784  0.20613732968593726  1.0000
  C   C26       1.0  0.6001196634992682  0.9459781636090857  0.7938626702118293  1.0000
  C   C27       1.0  0.6103232039582204  0.06332768414801632  0.23988479314913203  1.0000
  C   C28       1.0  0.3896767968899853  0.9366723152079404  0.7601152067508233  1.0000
  C   C29       1.0  0.4890464368941254  0.40704983907921366  0.12573524405631908  1.0000
  C   C30       1.0  0.5109535639540803  0.5929501602767431  0.8742647558436363  1.0000
  C   C31       1.0  0.6213017328510387  0.9144682866779641  0.03919286508117411  1.0000
  C   C32       1.0  0.3786982666486386  0.08553171379938539  0.9608071348165924  1.0000
  C   C33       1.0  0.7146781049773838  0.05507001264538033  0.027047443697119443  1.0000
  C   C34       1.0  0.2853218945222938  0.9449299878319694  0.9729525562006474  1.0000
  C   C35       1.0  0.4035856455302616  0.8615226278246817  0.011467038808056074  1.0000
  C   C36       1.0  0.5964143537371385  0.13847737152970438  0.9885329610899983  1.0000
  C   C37       1.0  0.3473269970068023  0.42773353107679635  0.43718614432271685  1.0000
  C   C38       1.0  0.6526730022605977  0.5722664682775895  0.5628138555753376  1.0000
  C   C39       1.0  0.5424223951699112  0.37665397011448043  0.45079965444795495  1.0000
  C   C40       1.0  0.45757760409748877  0.6233460292399056  0.5492003454500995  1.0000
  C   C41       1.0  0.3087138599574932  0.5536813864671034  0.48733817875973223  1.0000
  C   C42       1.0  0.6912861408907125  0.44631861288885327  0.512661821140223  1.0000
  N   N1        1.0  0.33480217714351856  0.4992949551024889  0.15457067997886187  1.0000
  N   N2        1.0  0.6651978239419358  0.5007050445199096  0.845429320461264  1.0000
  N   N3        1.0  0.037134635427300534  0.6063400610485281  0.1590508522319157  1.0000
  N   N4        1.0  0.9628653638400996  0.3936599383058578  0.8409491476661388  1.0000
  N   N5        1.0  0.7717572762045106  0.17617576343845404  0.23787419350235198  1.0000
  N   N6        1.0  0.2282427232951667  0.8238242370388956  0.7621258063954146  1.0000
  F   F1        1.0  0.9251807348600223  0.11544782818815309  0.05358457002905969  1.0000
  F   F2        1.0  0.07481926622543214  0.8845521714342455  0.9464154304110661  1.0000
  F   F3        1.0  0.3030783330742498  0.7236418239598065  0.020133328141332136  1.0000
  F   F4        1.0  0.6969216680062332  0.27635817651911376  0.9798666717583352  1.0000
  F   F5        1.0  0.5891060081189269  0.2544659557895287  0.40385969484147527  1.0000
  F   F6        1.0  0.41089399296155604  0.7455340446893916  0.5961403050581922  1.0000
  F   F7        1.0  0.12566362121008084  0.6127832977598313  0.476148431621017  1.0000
  F   F8        1.0  0.8743363780573192  0.38721670159455457  0.5238515682770375  1.0000
  I   I1        1.0  0.801004409438179  0.7815975492586276  0.09453582278857814  1.0000
  I   I2        1.0  0.1989955902987472  0.21840245148516366  0.9054641776493588  1.0000
  I   I3        1.0  0.1114652486524496  0.31014337491255584  0.34801119273125786  1.0000
  I   I4        1.0  0.8885347508472279  0.6898566255647937  0.6519888071665088  1.0000
