data_image0
_chemical_formula_structural       H30C54N6F12I12
_chemical_formula_sum              "H30 C54 N6 F12 I12"
_cell_length_a       9.112016524493816
_cell_length_b       9.476742845971975
_cell_length_c       19.856576778329806
_cell_angle_alpha    92.60215618421122
_cell_angle_beta     101.47917783785498
_cell_angle_gamma    108.89014588311615

_space_group_name_H-M_alt    "P 1"
_space_group_IT_number       1

loop_
  _space_group_symop_operation_xyz
  'x, y, z'

loop_
  _atom_site_type_symbol
  _atom_site_label
  _atom_site_symmetry_multiplicity
  _atom_site_fract_x
  _atom_site_fract_y
  _atom_site_fract_z
  _atom_site_occupancy
  H   H1        1.0  0.9360829828000323  0.6315415141677865  0.3232955822227834  1.0000
  H   H2        1.0  0.06391701730606558  0.3684584862355474  0.6767044176756889  1.0000
  H   H3        1.0  0.009840262732226322  0.14683997272118562  0.38482731368463524  1.0000
  H   H4        1.0  0.9901597376398558  0.8531600278130753  0.615172686731369  1.0000
  H   H5        1.0  0.5733445976686197  0.14374752130697543  0.18339246305813922  1.0000
  H   H6        1.0  0.4266554024374783  0.8562524790963586  0.8166075368403329  1.0000
  H   H7        1.0  0.9404728581083501  0.883445589569802  0.35986190450299094  1.0000
  H   H8        1.0  0.059527142263731944  0.11655441096445897  0.6401380959130134  1.0000
  H   H9        1.0  0.8739778789998589  0.8197648387779265  0.27001504649047253  1.0000
  H   H10       1.0  0.12602212072824684  0.18023516050987523  0.7299849534070147  1.0000
  H   H11       1.0  0.7356477418962519  0.7820714855024846  0.32343225713435775  1.0000
  H   H12       1.0  0.264352258209846  0.2179285149008493  0.6765677427641144  1.0000
  H   H13       1.0  0.4931715985414302  0.8828250293828005  0.16106844091233383  1.0000
  H   H14       1.0  0.5068284011866754  0.11717496990500106  0.8389315589851534  1.0000
  H   H15       1.0  0.5191801115563622  0.7876396609692988  0.23492758737961972  1.0000
  H   H16       1.0  0.4808198885497356  0.2123603394340351  0.7650724125188525  1.0000
  H   H17       1.0  0.6493708313457082  0.8075227666696971  0.17794084283282088  1.0000
  H   H18       1.0  0.3506291690263738  0.19247723386456375  0.8220591575831834  1.0000
  H   H19       1.0  0.4401454450399128  0.5294726558175311  0.1219290554570016  1.0000
  H   H20       1.0  0.5598545550661851  0.47052734458580286  0.8780709444414707  1.0000
  H   H21       1.0  0.5593557011220707  0.39259019352932967  0.32394465472630274  1.0000
  H   H22       1.0  0.440644298606035  0.607409805758472  0.6760553451711846  1.0000
  H   H23       1.0  0.2889926407149673  0.37821429484253805  0.33904517403480394  1.0000
  H   H24       1.0  0.7110073593911306  0.6217857055607958  0.6609548258636683  1.0000
  H   H25       1.0  0.10896883232600589  0.44811953345925903  0.24429946397868477  1.0000
  H   H26       1.0  0.8910311680460762  0.5518804670750019  0.7557005364373196  1.0000
  H   H27       1.0  0.6729112933397542  0.4169071679497914  0.15854701181861242  1.0000
  H   H28       1.0  0.3270887063883514  0.5830928313380103  0.8414529880788749  1.0000
  H   H29       1.0  0.7503195357740806  0.5960796056300988  0.2062715530031966  1.0000
  H   H30       1.0  0.24968046433201727  0.40392039477323516  0.7937284468952756  1.0000
  C   C1        1.0  0.9021530511259395  0.5101400295460695  0.3154874881081996  1.0000
  C   C2        1.0  0.09784694898015839  0.4898599708572644  0.6845125117902725  1.0000
  C   C3        1.0  0.8904929394286693  0.2807263880667715  0.32525820881524764  1.0000
  C   C4        1.0  0.10950706029943648  0.7192736112210302  0.6747417910822396  1.0000
  C   C5        1.0  0.9149140862972431  0.14664278864399852  0.3415601275868019  1.0000
  C   C6        1.0  0.08508591407483898  0.8533572118902625  0.6584398728292025  1.0000
  C   C7        1.0  0.8163643029500852  0.012667548813013116  0.30054827062307904  1.0000
  C   C8        1.0  0.1836356967780205  0.9873324504747885  0.6994517292744082  1.0000
  C   C9        1.0  0.6905484747764159  0.010792818484048282  0.2441406688567237  1.0000
  C   C10       1.0  0.309451525329682  0.9892071819192857  0.7558593310417485  1.0000
  C   C11       1.0  0.6673409815407267  0.14431375784300454  0.22707639018755754  1.0000
  C   C12       1.0  0.3326590185653712  0.8556862425603295  0.7729236097109147  1.0000
  C   C13       1.0  0.7693844240255522  0.27675374738798014  0.2672225894618029  1.0000
  C   C14       1.0  0.23061557608054573  0.7232462530153538  0.7327774104366693  1.0000
  C   C15       1.0  0.8430705973499825  0.8674540179305502  0.3147149808094526  1.0000
  C   C16       1.0  0.15692940275611542  0.13254598247278374  0.6852850190890196  1.0000
  C   C17       1.0  0.5826325720729125  0.8650665705635084  0.20240676292688467  1.0000
  C   C18       1.0  0.4173674282991696  0.13493342997075258  0.7975932374891196  1.0000
  C   C19       1.0  0.4110721747818343  0.49511157921103116  0.1709289486023802  1.0000
  C   C20       1.0  0.5889278253242636  0.5048884211923027  0.8290710512960919  1.0000
  C   C21       1.0  0.5213752519216597  0.4612656872828777  0.2214929127993599  1.0000
  C   C22       1.0  0.478624747806446  0.538734312004924  0.7785070870981274  1.0000
  C   C23       1.0  0.47703885294855186  0.41872112033650394  0.2829150932346981  1.0000
  C   C24       1.0  0.5229611467795539  0.5812788789512977  0.7170849066627892  1.0000
  C   C25       1.0  0.3266966358226864  0.41084773354655313  0.2916174783768909  1.0000
  C   C26       1.0  0.6733033642834115  0.5891522668567808  0.7083825215215813  1.0000
  C   C27       1.0  0.22611185461238173  0.4493741392773882  0.2390033925177441  1.0000
  C   C28       1.0  0.7738881451157239  0.5506258600104136  0.7609966073797432  1.0000
  C   C29       1.0  0.6842124825191558  0.47768966748810465  0.2089482145145617  1.0000
  C   C30       1.0  0.3157875175869421  0.5223103329152293  0.7910517853839105  1.0000
  C   C31       1.0  0.3038160638729026  0.8681743412259136  0.5253868346467117  1.0000
  C   C32       1.0  0.6961839362331953  0.1318256591774203  0.4746131652517605  1.0000
  C   C33       1.0  0.43236719518251987  0.8823044382550366  0.5798441994878916  1.0000
  C   C34       1.0  0.5676328045455858  0.11769556103276511  0.4201558004095957  1.0000
  C   C35       1.0  0.5203335886335243  0.017135225990221686  0.6219827435429509  1.0000
  C   C36       1.0  0.4796664110945814  0.98286477329758  0.37801725635453637  1.0000
  C   C37       1.0  0.4765279896228233  0.1425214781095563  0.6070470447520145  1.0000
  C   C38       1.0  0.5234720101052824  0.8574785211782455  0.3929529551454728  1.0000
  C   C39       1.0  0.35210274484128984  0.13707255904068077  0.5517750618154402  1.0000
  C   C40       1.0  0.6478972555307921  0.8629274414935801  0.44822493860056406  1.0000
  C   C41       1.0  0.26675739192081604  0.9978218922668147  0.5126605727297535  1.0000
  C   C42       1.0  0.7332426081852819  0.002178108136519244  0.4873394271687187  1.0000
  C   C43       1.0  0.9540550383366578  0.7237949158186091  0.02813194508801287  1.0000
  C   C44       1.0  0.045944962035424204  0.27620508471565175  0.9718680553279915  1.0000
  C   C45       1.0  0.8010974857935625  0.7169803084599133  0.03222016011694689  1.0000
  C   C46       1.0  0.19890251393454322  0.28301969082788847  0.9677798397805405  1.0000
  C   C47       1.0  0.7068912326239388  0.7751590950804873  0.9850328641100751  1.0000
  C   C48       1.0  0.29310876737015107  0.22484090433824136  0.014967136304944343  1.0000
  C   C49       1.0  0.7714170427096809  0.8437756981922485  0.931728762942064  1.0000
  C   C50       1.0  0.2285829570184248  0.1562243010955533  0.06827123695542328  1.0000
  C   C51       1.0  0.9230985438434027  0.8527726688819559  0.9244688526095904  1.0000
  C   C52       1.0  0.07690145652867923  0.14722733165230503  0.0755311478064139  1.0000
  C   C53       1.0  0.01094649366378587  0.792824864861979  0.9735492509776947  1.0000
  C   C54       1.0  0.9890535064423123  0.20717513554135497  0.026450748920777565  1.0000
  N   N1        1.0  0.7813036259637107  0.42511589971245606  0.26180030959899026  1.0000
  N   N2        1.0  0.21869637414238732  0.5748841006908779  0.738199690299482  1.0000
  N   N3        1.0  0.9706056006112112  0.4293148373954562  0.35472055186732887  1.0000
  N   N4        1.0  0.029394399760870875  0.5706851631388047  0.6452794485486755  1.0000
  N   N5        1.0  0.2679432713926626  0.4913438861763445  0.17986679898107746  1.0000
  N   N6        1.0  0.7320567287134353  0.5086561142269895  0.8201332009173947  1.0000
  F   F1        1.0  0.47386060692333953  0.759175760762272  0.5920501555263563  1.0000
  F   F2        1.0  0.5261393931827583  0.2408242396410618  0.4079498443721159  1.0000
  F   F3        1.0  0.5564694152249338  0.2738362745886365  0.6481145308569609  1.0000
  F   F4        1.0  0.4435305848811642  0.7261637258146975  0.35188546904151125  1.0000
  F   F5        1.0  0.14325907325516696  0.9885882086554234  0.45963094168609164  1.0000
  F   F6        1.0  0.8567409264729388  0.011411790632378321  0.5403690582113957  1.0000
  F   F7        1.0  0.7400664973947882  0.6509324993832987  0.08457447576144075  1.0000
  F   F8        1.0  0.2599335027113096  0.34906750102003525  0.9154255241370314  1.0000
  F   F9        1.0  0.6834299704834845  0.9014585429216749  0.8850418337794753  1.0000
  F   F10       1.0  0.31657002962261344  0.09854145748165898  0.1149581661189969  1.0000
  F   F11       1.0  0.15917224610309277  0.8020377647158459  0.9669203407344542  1.0000
  F   F12       1.0  0.840827753890997  0.19796223470288274  0.03307965968056511  1.0000
  I   I1        1.0  0.17413174192041306  0.6615597745966595  0.46339019099056356  1.0000
  I   I2        1.0  0.8258682578076926  0.3384402246911422  0.5366098089069237  1.0000
  I   I3        1.0  0.7086274324502246  0.027982350673124143  0.7043678955236666  1.0000
  I   I4        1.0  0.29137256765587327  0.9720176497302099  0.29563210437480564  1.0000
  I   I5        1.0  0.2974466424869386  0.33026371164758817  0.5274387202587236  1.0000
  I   I6        1.0  0.7025533576191593  0.6697362887557458  0.47256127963974853  1.0000
  I   I7        1.0  0.0915686804612414  0.6241198460663353  0.09732707829211532  1.0000
  I   I8        1.0  0.9084313199108406  0.37588015446792555  0.9026729221238889  1.0000
  I   I9        1.0  0.4762978720995476  0.7565013001444892  0.9924412849345814  1.0000
  I   I10       1.0  0.5237021280065502  0.2434987002588446  0.00755871496389069  1.0000
  I   I11       1.0  0.014052917206971868  0.936705876097746  0.8403052803896959  1.0000
  I   I12       1.0  0.9859470818017247  0.06329412430726682  0.1596947195075785  1.0000
