data_image0
_chemical_formula_structural       H112C88N16O44S4
_chemical_formula_sum              "H112 C88 N16 O44 S4"
_cell_length_a       7.8986551379002945
_cell_length_b       18.44151125232093
_cell_length_c       17.03471174624715
_cell_angle_alpha    90.0
_cell_angle_beta     93.43831779630523
_cell_angle_gamma    90.0

_space_group_name_H-M_alt    "P 1"
_space_group_IT_number       1

loop_
  _space_group_symop_operation_xyz
  'x, y, z'

loop_
  _atom_site_type_symbol
  _atom_site_label
  _atom_site_symmetry_multiplicity
  _atom_site_fract_x
  _atom_site_fract_y
  _atom_site_fract_z
  _atom_site_occupancy
  H   H1        1.0  0.3322909522928014  0.62828707156751  0.5579798188402373  1.0000
  H   H2        1.0  0.6677090470122088  0.12828707135930928  0.9420201813114394  1.0000
  H   H3        1.0  0.6677090471954679  0.37171292884889146  0.44202018140029725  1.0000
  H   H4        1.0  0.3322909524760605  0.8717129285148373  0.057979818929095046  1.0000
  H   H5        1.0  0.1201684383114584  0.5654482258707314  0.3297018317543549  1.0000
  H   H6        1.0  0.8798315613600698  0.06544822620478565  0.17029816857503735  1.0000
  H   H7        1.0  0.8798315624451225  0.434551774003415  0.6702981685237435  1.0000
  H   H8        1.0  0.12016843812819938  0.9345517736693608  0.8297018316654972  1.0000
  H   H9        1.0  0.858695763671987  0.3094212422141843  0.9375800626107469  1.0000
  H   H10       1.0  0.1413042356379792  0.8094212418801301  0.5624199369540356  1.0000
  H   H11       1.0  0.14130423582123824  0.6905787576599621  0.062419937042893274  1.0000
  H   H12       1.0  0.8586957638552459  0.19057875799401636  0.43758006269960464  1.0000
  H   H13       1.0  0.06767705946995073  0.31186793757350967  0.9810295723835253  1.0000
  H   H14       1.0  0.9323229411033712  0.8118679377817104  0.5189704278057155  1.0000
  H   H15       1.0  0.9323229412866302  0.6881320623006368  0.018970427894573136  1.0000
  H   H16       1.0  0.06767705965320976  0.188132062634691  0.481029572472383  1.0000
  H   H17       1.0  0.016930547914633665  0.25286646935798796  0.8994622263521647  1.0000
  H   H18       1.0  0.9830694513903766  0.7528664695661886  0.6005377737995121  1.0000
  H   H19       1.0  0.9830694515736356  0.7471335305161586  0.10053777388836986  1.0000
  H   H20       1.0  0.016930548102848567  0.24713353030795784  0.39946222585412805  1.0000
  H   H21       1.0  0.9846179866705983  0.49847062717504154  0.812752117346745  1.0000
  H   H22       1.0  0.015382012639367693  0.9984706273832423  0.6872478822180375  1.0000
  H   H23       1.0  0.015382012822626724  0.5015293726991049  0.18724788230689518  1.0000
  H   H24       1.0  0.9846179868538574  0.001529372490904206  0.31275211743560266  1.0000
  H   H25       1.0  0.20388843073215737  0.47592754682159827  0.8191594500834913  1.0000
  H   H26       1.0  0.7961115685728528  0.9759275470297989  0.6808405500681856  1.0000
  H   H27       1.0  0.7961115687561118  0.5240724530525482  0.18084055015704328  1.0000
  H   H28       1.0  0.20388843092037226  0.024072452844347534  0.31915944958545467  1.0000
  H   H29       1.0  0.14787687253305198  0.6035842164832952  0.8699946678132465  1.0000
  H   H30       1.0  0.8521231280402699  0.10358421627509451  0.6300053323759941  1.0000
  H   H31       1.0  0.8521231282235289  0.3964157833908513  0.1300053324648519  1.0000
  H   H32       1.0  0.14787687271631103  0.8964157835990519  0.3699946679021043  1.0000
  H   H33       1.0  0.24716130474154469  0.5469838616794753  0.9438693668788113  1.0000
  H   H34       1.0  0.7528386945634655  0.04698386147127469  0.5561306332728655  1.0000
  H   H35       1.0  0.7528386947467245  0.4530161381946711  0.0561306333617232  1.0000
  H   H36       1.0  0.24716130492975957  0.9530161384028718  0.44386936638077473  1.0000
  H   H37       1.0  0.02659976634527017  0.5649197464057542  0.9445929249851541  1.0000
  H   H38       1.0  0.9734002342280517  0.0649197461975534  0.5554070752040864  1.0000
  H   H39       1.0  0.9734002331429992  0.4350802540106473  0.05540707525538024  1.0000
  H   H40       1.0  0.02659976653348507  0.9350802536765931  0.4445929244871177  1.0000
  H   H41       1.0  0.1584647731884828  0.30970022639989486  0.7376491236379717  1.0000
  H   H42       1.0  0.8415352273848391  0.8097002266080956  0.762350876551269  1.0000
  H   H43       1.0  0.8415352263047424  0.6902997734742516  0.26235087601566837  1.0000
  H   H44       1.0  0.1584647733717418  0.19029977380830584  0.23764912372682953  1.0000
  H   H45       1.0  0.29502553196750647  0.3144612586601414  0.6652401433147932  1.0000
  H   H46       1.0  0.7049744673375037  0.8144612583260872  0.8347598568368836  1.0000
  H   H47       1.0  0.7049744675207626  0.6855387417562601  0.3347598569257413  1.0000
  H   H48       1.0  0.2950255321507655  0.1855387415480593  0.16524014340365098  1.0000
  H   H49       1.0  0.33517576605988103  0.22279385532912394  0.8086535526889512  1.0000
  H   H50       1.0  0.6648242332500851  0.7227938555373247  0.6913464468758312  1.0000
  H   H51       1.0  0.6648242334333442  0.7772061445450226  0.19134644696468897  1.0000
  H   H52       1.0  0.33517576624314005  0.2772061443368219  0.3086535527778089  1.0000
  H   H53       1.0  0.5756122946612482  0.2550159905906912  0.6794359927274194  1.0000
  H   H54       1.0  0.4243877059120737  0.7550159907988919  0.8205640074618212  1.0000
  H   H55       1.0  0.4243877060953327  0.7449840092834553  0.320564007550679  1.0000
  H   H56       1.0  0.5756122948445073  0.24498400907525456  0.17943599281627717  1.0000
  H   H57       1.0  0.5460306159780773  0.12452218142973467  0.6486399788480539  1.0000
  H   H58       1.0  0.45396938332693293  0.6245221816379354  0.8513600213036228  1.0000
  H   H59       1.0  0.45396938351019195  0.8754778184444117  0.3513600213924805  1.0000
  H   H60       1.0  0.5460306161613364  0.37547781877846603  0.14863997893691178  1.0000
  H   H61       1.0  0.4090765436949501  0.11284919774338369  0.7258460559093305  1.0000
  H   H62       1.0  0.5909234568783718  0.6128491979515844  0.7741539442799101  1.0000
  H   H63       1.0  0.5909234570616307  0.8871508021307627  0.2741539443687679  1.0000
  H   H64       1.0  0.40907654387820913  0.38715080192256207  0.22584605599818827  1.0000
  H   H65       1.0  0.33986577113591715  0.20533400968011417  0.5769589066076787  1.0000
  H   H66       1.0  0.6601342281690931  0.705334009888315  0.9230410935439982  1.0000
  H   H67       1.0  0.6601342283523521  0.7946659901940323  0.4230410936328559  1.0000
  H   H68       1.0  0.33986577131917617  0.2946659899858316  0.07695890669653632  1.0000
  H   H69       1.0  0.2349459430444696  0.12415913363455154  0.6002249710268588  1.0000
  H   H70       1.0  0.7650540575288522  0.6241591333004973  0.8997750291623818  1.0000
  H   H71       1.0  0.7650540577121113  0.8758408667818499  0.3997750292512397  1.0000
  H   H72       1.0  0.23494594195941695  0.3758408665736491  0.10022497107815259  1.0000
  H   H73       1.0  0.0635355906198239  0.23558199599575824  0.6293872145375687  1.0000
  H   H74       1.0  0.9364644099584538  0.735581995661704  0.8706127850647776  1.0000
  H   H75       1.0  0.9364644088734012  0.7644180044206431  0.3706127851160714  1.0000
  H   H76       1.0  0.06353559080308292  0.26441800421244244  0.12938721462642652  1.0000
  H   H77       1.0  0.11431186109357226  0.18306572621997655  0.715799742877773  1.0000
  H   H78       1.0  0.8856881394797497  0.6830657264281773  0.7842002573114676  1.0000
  H   H79       1.0  0.8856881396630086  0.8169342736541699  0.2842002574003253  1.0000
  H   H80       1.0  0.1143118600085196  0.31693427344596925  0.21579974292906692  1.0000
  H   H81       1.0  0.4068676642782795  0.2810517337264157  0.9239213611791431  1.0000
  H   H82       1.0  0.5931323350267308  0.7810517339346164  0.5760786389725338  1.0000
  H   H83       1.0  0.5931323352099898  0.7189482661477309  0.07607863906139144  1.0000
  H   H84       1.0  0.4068676644615385  0.21894826648178506  0.4239213612680008  1.0000
  H   H85       1.0  0.5228024915155751  0.38695350138953  0.9995159593182223  1.0000
  H   H86       1.0  0.47719750778943515  0.8869535015977307  0.5004840408334544  1.0000
  H   H87       1.0  0.47719750797269417  0.6130464984846165  0.0004840409223122794  1.0000
  H   H88       1.0  0.5228024916988341  0.11304649827641577  0.49951595940708  1.0000
  H   H89       1.0  0.644234709845338  0.49178407484682707  0.9288168473088465  1.0000
  H   H90       1.0  0.3557652907329397  0.9917840745127728  0.5711831522934997  1.0000
  H   H91       1.0  0.35576529091619874  0.5082159255695743  0.07118315238235753  1.0000
  H   H92       1.0  0.644234710028597  0.008215925361373591  0.42881684739770437  1.0000
  H   H93       1.0  0.6456466529411677  0.48926344086168394  0.7822178527995566  1.0000
  H   H94       1.0  0.35435334763711007  0.9892634410698847  0.7177821468027898  1.0000
  H   H95       1.0  0.35435334655205747  0.5107365590124625  0.21778214685408367  1.0000
  H   H96       1.0  0.6456466531244267  0.010736559346516746  0.2822178528884142  1.0000
  H   H97       1.0  0.5305495809517943  0.38413787205798783  0.7079338023953864  1.0000
  H   H98       1.0  0.46945041962152756  0.8841378717239337  0.7920661977938542  1.0000
  H   H99       1.0  0.46945041853647484  0.6158621278161587  0.29206619784514815  1.0000
  H   H100      1.0  0.5305495811350535  0.11586212815021285  0.20793380248424415  1.0000
  H   H101      1.0  0.7404059002783707  0.24422360772809087  0.8063338632591809  1.0000
  H   H102      1.0  0.25959410029495117  0.7442236079362915  0.6936661369300597  1.0000
  H   H103      1.0  0.2595941004782102  0.7557763921460556  0.19366613701891752  1.0000
  H   H104      1.0  0.740405899193318  0.25577639193785495  0.3063338633104747  1.0000
  H   H105      1.0  0.7683031580766521  0.16465358985250467  0.750494302157828  1.0000
  H   H106      1.0  0.23169684123331405  0.6646535895184504  0.7495056974069544  1.0000
  H   H107      1.0  0.23169684141657307  0.8353464100216418  0.2495056974958122  1.0000
  H   H108      1.0  0.7683031582599111  0.33534641035569607  0.25049430224668573  1.0000
  H   H109      1.0  0.6291042753035697  0.16345612399963316  0.8285362455359341  1.0000
  H   H110      1.0  0.37089572526975223  0.6634561242078338  0.6714637546533065  1.0000
  H   H111      1.0  0.37089572418469957  0.8365438758745133  0.17146375470460037  1.0000
  H   H112      1.0  0.6291042754868287  0.3365438756663126  0.3285362456247919  1.0000
  C   C1        1.0  0.22791186044494233  0.4573216421695694  0.48999071797053306  1.0000
  C   C2        1.0  0.7720881392315417  0.9573216418355152  0.010009281771964916  1.0000
  C   C3        1.0  0.7720881390482828  0.542678358246832  0.5100092816831071  1.0000
  C   C4        1.0  0.22791186025672744  0.04267835803863127  0.9899907184685697  1.0000
  C   C5        1.0  0.2810364187364892  0.5137066648378789  0.5407399093702313  1.0000
  C   C6        1.0  0.7189635818417885  0.013706665171933119  0.9592600902321149  1.0000
  C   C7        1.0  0.7189635820250476  0.4862933350362676  0.4592600903209727  1.0000
  C   C8        1.0  0.28103641765143655  0.9862933352444684  0.04073990942152522  1.0000
  C   C9        1.0  0.2849477470324741  0.5859603913231366  0.5180723386694428  1.0000
  C   C10       1.0  0.7150522535408478  0.0859603916571909  0.9819276615197977  1.0000
  C   C11       1.0  0.7150522524557951  0.4140396085510098  0.4819276615710917  1.0000
  C   C12       1.0  0.2849477472157331  0.9140396082169555  0.01807233875830063  1.0000
  C   C13       1.0  0.22613900100964301  0.6029717737260033  0.44212400404518326  1.0000
  C   C14       1.0  0.7738609999351528  0.10297177406005757  0.057875995734878546  1.0000
  C   C15       1.0  0.7738609997518937  0.39702822614814315  0.5578759956460208  1.0000
  C   C16       1.0  0.2261390008214281  0.8970282258140889  0.9421240045432199  1.0000
  C   C17       1.0  0.1671268746564408  0.5505548369156676  0.38887545200091334  1.0000
  C   C18       1.0  0.8328731250200433  0.05055483670746701  0.11112454774158453  1.0000
  C   C19       1.0  0.8328731248367842  0.44944516295847875  0.6111245476527267  1.0000
  C   C20       1.0  0.1671268744682259  0.9494451631666795  0.88887545249895  1.0000
  C   C21       1.0  0.16944426062565932  0.4789033560841441  0.4140358662707646  1.0000
  C   C22       1.0  0.8305557390458691  0.9789033557500899  0.0859641340586276  1.0000
  C   C23       1.0  0.8305557388626099  0.5210966437900024  0.5859641339697699  1.0000
  C   C24       1.0  0.16944426171071197  0.0210966441240566  0.9140358662194707  1.0000
  C   C25       1.0  0.9934933964616847  0.3060395773849447  0.9250369533302952  1.0000
  C   C26       1.0  0.006506602843325523  0.8060395770508906  0.5749630468213814  1.0000
  C   C27       1.0  0.006506603026584553  0.6939604224892018  0.07496304691023928  1.0000
  C   C28       1.0  0.9934933966449437  0.19396042282325596  0.425036953419153  1.0000
  C   C29       1.0  0.03221717922820969  0.36516936263303623  0.8689921325813841  1.0000
  C   C30       1.0  0.9677828200768005  0.8651693628412369  0.6310078675702927  1.0000
  C   C31       1.0  0.9677828202600595  0.6348306372411102  0.1310078676591505  1.0000
  C   C32       1.0  0.03221717941146872  0.1348306370329095  0.3689921326702418  1.0000
  C   C33       1.0  0.09579480999360397  0.4903152743982418  0.8537210566154467  1.0000
  C   C34       1.0  0.9042051905797179  0.9903152746064425  0.6462789435737939  1.0000
  C   C35       1.0  0.9042051894946652  0.5096847254759047  0.1462789436250878  1.0000
  C   C36       1.0  0.095794810176863  0.0096847258099589  0.3537210567043045  1.0000
  C   C37       1.0  0.13108189711397286  0.5551359522507445  0.9062285916097305  1.0000
  C   C38       1.0  0.8689181034593491  0.05513595258479879  0.5937714085795102  1.0000
  C   C39       1.0  0.868918103642608  0.4448640476234019  0.09377140866836786  1.0000
  C   C40       1.0  0.1310818972972319  0.9448640478316026  0.4062285916985884  1.0000
  C   C41       1.0  0.3922746368960003  0.25967533487242334  0.7668569882883993  1.0000
  C   C42       1.0  0.60772536240901  0.759675335080624  0.7331430118632773  1.0000
  C   C43       1.0  0.6077253625922691  0.7403246650017232  0.2331430119521352  1.0000
  C   C44       1.0  0.39227463707925936  0.2403246647935225  0.2668569883772571  1.0000
  C   C45       1.0  0.5275080602988931  0.21810038965726325  0.7237145314598137  1.0000
  C   C46       1.0  0.4724919402744289  0.718100389865464  0.776285468729427  1.0000
  C   C47       1.0  0.4724919404626438  0.7818996102168831  0.2762854682313905  1.0000
  C   C48       1.0  0.527508060482152  0.28189961000868247  0.22371453154867135  1.0000
  C   C49       1.0  0.4487111726483614  0.15180194625577  0.6814924606228545  1.0000
  C   C50       1.0  0.5512888266566488  0.6518019464639707  0.8185075395288223  1.0000
  C   C51       1.0  0.5512888268399078  0.8481980536183764  0.3185075396176799  1.0000
  C   C52       1.0  0.4487111728316205  0.34819805341017573  0.1814924607117123  1.0000
  C   C53       1.0  0.2971696755141865  0.17260333583558127  0.6261499588329472  1.0000
  C   C54       1.0  0.7028303237908237  0.6726033355015271  0.8738500413187295  1.0000
  C   C55       1.0  0.7028303239740827  0.8273966640385653  0.3738500414075872  1.0000
  C   C56       1.0  0.29716967570240144  0.32739666437261944  0.12614995833491066  1.0000
  C   C57       1.0  0.16691870900573738  0.21547850800459153  0.6690408367441024  1.0000
  C   C58       1.0  0.8330812915725404  0.7154785082127922  0.830959162858244  1.0000
  C   C59       1.0  0.8330812917557994  0.7845214918695549  0.33095916294710165  1.0000
  C   C60       1.0  0.16691870918899643  0.28452149166135426  0.1690408368329602  1.0000
  C   C61       1.0  0.4592906796833212  0.3257469205103223  0.8110956013703327  1.0000
  C   C62       1.0  0.5407093196266449  0.825746920718523  0.6889043981944497  1.0000
  C   C63       1.0  0.540709319809904  0.6742530793638242  0.1889043982833075  1.0000
  C   C64       1.0  0.45929067986658023  0.17425307969787837  0.3110956014591904  1.0000
  C   C65       1.0  0.4578413308597513  0.3273826291888181  0.8932984744489557  1.0000
  C   C66       1.0  0.5421586697135706  0.8273826288547639  0.606701525740285  1.0000
  C   C67       1.0  0.5421586686285179  0.6726173706853283  0.10670152579157881  1.0000
  C   C68       1.0  0.45784133104301034  0.17261737101938257  0.39329847453781347  1.0000
  C   C69       1.0  0.5239250617295717  0.3868914430265064  0.9355176567874578  1.0000
  C   C70       1.0  0.47607493884870605  0.8868914426924522  0.5644823428148885  1.0000
  C   C71       1.0  0.47607493903196507  0.613108557389895  0.06448234290374628  1.0000
  C   C72       1.0  0.5239250619128307  0.11310855718169426  0.43551765687631555  1.0000
  C   C73       1.0  0.5920812070342598  0.44536221937702347  0.8959329807007763  1.0000
  C   C74       1.0  0.4079187935390621  0.9453622190429691  0.6040670194884644  1.0000
  C   C75       1.0  0.40791879372232115  0.554637780497123  0.10406701957732213  1.0000
  C   C76       1.0  0.5920812072175189  0.05463778083117725  0.395932980789634  1.0000
  C   C77       1.0  0.5940622735836663  0.4439718674883314  0.8140109176332521  1.0000
  C   C78       1.0  0.4059377269896556  0.9439718676965321  0.6859890825559886  1.0000
  C   C79       1.0  0.40593772717291465  0.556028132385815  0.18598908264484634  1.0000
  C   C80       1.0  0.5940622737669253  0.05602813217761438  0.3140109177221099  1.0000
  C   C81       1.0  0.5283575722683777  0.38445440685386933  0.7718392056221811  1.0000
  C   C82       1.0  0.47164242703663256  0.88445440706207  0.7281607945294956  1.0000
  C   C83       1.0  0.4716424272198916  0.6155455930202771  0.22816079461835337  1.0000
  C   C84       1.0  0.5283575724516367  0.11554559281207644  0.27183920571103887  1.0000
  C   C85       1.0  0.674930229156909  0.1966997433327745  0.7806569255090569  1.0000
  C   C86       1.0  0.32506977014810107  0.6966997429987203  0.7193430746426198  1.0000
  C   C87       1.0  0.32506977033136014  0.8033002570836268  0.21934307473147763  1.0000
  C   C88       1.0  0.6749302293401681  0.30330025687542617  0.28065692559791466  1.0000
  N   N1        1.0  0.10392503212551087  0.4255227856671666  0.3552258938902504  1.0000
  N   N2        1.0  0.8960749675509732  0.9255227853331125  0.14477410585224754  1.0000
  N   N3        1.0  0.8960749673677142  0.5744772142069798  0.6447741057633898  1.0000
  N   N4        1.0  0.10392503194225185  0.07447721454103409  0.8552258938013926  1.0000
  N   N5        1.0  0.22626375165307536  0.6790793801361537  0.4175040621886007  1.0000
  N   N6        1.0  0.7737362492867647  0.1790793804702079  0.08249593817835554  1.0000
  N   N7        1.0  0.7737362491035056  0.3209206197379928  0.5824959380894977  1.0000
  N   N8        1.0  0.22626375146981634  0.8209206199461935  0.9175040620997429  1.0000
  N   N9        1.0  0.33062340806163665  0.5008112650657983  0.6246223037567666  1.0000
  N   N10       1.0  0.6693765912483295  0.0008112648575976718  0.8753776958080158  1.0000
  N   N11       1.0  0.6693765914315886  0.49918873535060304  0.37537769589687353  1.0000
  N   N12       1.0  0.33062340824489567  0.9991887350165487  0.12462230384562437  1.0000
  N   N13       1.0  0.2489213811142664  0.2804526770737994  0.7080393059971397  1.0000
  N   N14       1.0  0.7510786181907438  0.7804526767397452  0.7919606941545371  1.0000
  N   N15       1.0  0.7510786183789587  0.719547323342602  0.2919606936565005  1.0000
  N   N16       1.0  0.2489213812975254  0.21954732313440128  0.20803930608599744  1.0000
  O   O1        1.0  0.3944186223819069  0.3642327772434942  0.5809955479366603  1.0000
  O   O2        1.0  0.6055813769280592  0.8642327769094399  0.919004451628122  1.0000
  O   O3        1.0  0.6055813771113182  0.6357672231729072  0.41900445171697986  1.0000
  O   O4        1.0  0.3944186225651659  0.13576722296470656  0.08099554802551807  1.0000
  O   O5        1.0  0.10398565005882998  0.3329849363200733  0.537942839168059  1.0000
  O   O6        1.0  0.8960143492461803  0.832984936528274  0.9620571609836177  1.0000
  O   O7        1.0  0.8960143494294392  0.6670150635540733  0.4620571610724756  1.0000
  O   O8        1.0  0.10398565024208903  0.16701506388812737  0.037942839256916744  1.0000
  O   O9        1.0  0.3279173199658186  0.33287695276206913  0.4428483468889736  1.0000
  O   O10       1.0  0.6720826797106656  0.8328769524280148  0.05715165285352428  1.0000
  O   O11       1.0  0.6720826795274065  0.6671230476543323  0.5571516527646666  1.0000
  O   O12       1.0  0.32791732105087124  0.16712304744613157  0.9428483468376798  1.0000
  O   O13       1.0  0.1556026564830106  0.43043832858334663  0.28816271167327795  1.0000
  O   O14       1.0  0.8443973431934735  0.9304383282492925  0.21183728806922  1.0000
  O   O15       1.0  0.8443973430102145  0.5695616718330547  0.7118372879803622  1.0000
  O   O16       1.0  0.1556026562997516  0.06956167162485408  0.7881627115844201  1.0000
  O   O17       1.0  0.9969985906191327  0.38158888410592484  0.37538524304131293  1.0000
  O   O18       1.0  0.0030014090573515576  0.8815888837718707  0.12461475670118491  1.0000
  O   O19       1.0  0.0030014088740925263  0.6184111163104765  0.6246147566123272  1.0000
  O   O20       1.0  0.9969985904309177  0.11841111610227584  0.8753852435393495  1.0000
  O   O21       1.0  0.17651229887473865  0.6922378505391398  0.3485809371107904  1.0000
  O   O22       1.0  0.8234877007967897  0.1922378503309391  0.15141906321860185  1.0000
  O   O23       1.0  0.8234877006135306  0.3077621498772616  0.651419063129744  1.0000
  O   O24       1.0  0.17651229995979134  0.8077621495432074  0.8485809370594966  1.0000
  O   O25       1.0  0.27656637228139147  0.7251034612641677  0.46624124305088493  1.0000
  O   O26       1.0  0.7234336286584485  0.2251034610559669  0.03375875731607127  1.0000
  O   O27       1.0  0.7234336284751894  0.27489653860997887  0.5337587572272136  1.0000
  O   O28       1.0  0.2765663720981324  0.7748965388181795  0.9662412429620272  1.0000
  O   O29       1.0  0.22172275945280928  0.474723999037671  0.6655068680180779  1.0000
  O   O30       1.0  0.7782772398522009  0.9747239987036168  0.8344931321335988  1.0000
  O   O31       1.0  0.7782772400354598  0.5252760013787304  0.3344931322224566  1.0000
  O   O32       1.0  0.22172275963606827  0.025276001170529677  0.16550686810693568  1.0000
  O   O33       1.0  0.4728252066456535  0.5216587338409843  0.6487091760395657  1.0000
  O   O34       1.0  0.5271747926593567  0.02165873363278357  0.8512908241121111  1.0000
  O   O35       1.0  0.5271747928426158  0.47834126657541715  0.3512908242009688  1.0000
  O   O36       1.0  0.47282520683386836  0.9783412662413629  0.14870917554152907  1.0000
  O   O37       1.0  0.035176730774563056  0.35824718644837383  0.7970182024407819  1.0000
  O   O38       1.0  0.9648232685304472  0.8582471861143196  0.7029817977108949  1.0000
  O   O39       1.0  0.9648232687137063  0.6417528134257727  0.20298179779975264  1.0000
  O   O40       1.0  0.03517673095782208  0.14175281375982685  0.2970182025296396  1.0000
  O   O41       1.0  0.0602812823956346  0.42916748967652707  0.9049225898893437  1.0000
  O   O42       1.0  0.9397187169093756  0.9291674898847277  0.5950774102623331  1.0000
  O   O43       1.0  0.9397187170926345  0.5708325101976194  0.0950774103511908  1.0000
  O   O44       1.0  0.06028128257889364  0.07083250998941873  0.40492258997820146  1.0000
  S   S1        1.0  0.2650274237432524  0.3619493374850145  0.5151241730321392  1.0000
  S   S2        1.0  0.7349725768350254  0.8619493376932151  0.9848758265702071  1.0000
  S   S3        1.0  0.7349725770182844  0.638050662389132  0.484875826659065  1.0000
  S   S4        1.0  0.2650274226581997  0.1380506621809313  0.015124173083432979  1.0000
