data_image0
_chemical_formula_structural       H34C26N10O6Cl2
_chemical_formula_sum              "H34 C26 N10 O6 Cl2"
_cell_length_a       6.38223153796456
_cell_length_b       8.47596100533413
_cell_length_c       14.084213029838553
_cell_angle_alpha    105.3945274986795
_cell_angle_beta     95.93833833346989
_cell_angle_gamma    96.3464253186488

_space_group_name_H-M_alt    "P 1"
_space_group_IT_number       1

loop_
  _space_group_symop_operation_xyz
  'x, y, z'

loop_
  _atom_site_type_symbol
  _atom_site_label
  _atom_site_symmetry_multiplicity
  _atom_site_fract_x
  _atom_site_fract_y
  _atom_site_fract_z
  _atom_site_occupancy
  H   H1        1.0  0.31134370171833775  0.7176698717936654  0.9219115111019623  1.0000
  H   H2        1.0  0.6886562996132446  0.2823301279015292  0.07808848896304188  1.0000
  H   H3        1.0  0.013963714870946442  0.8766055261508209  0.9560439472395584  1.0000
  H   H4        1.0  0.9860362848897817  0.12339447352089855  0.04395605282176463  1.0000
  H   H5        1.0  0.7750446889848328  0.48703868905098224  0.9503914877075251  1.0000
  H   H6        1.0  0.2249553109212241  0.5129613118073159  0.04960851235314603  1.0000
  H   H7        1.0  0.18429693638327566  0.693323334221277  0.6119591944244057  1.0000
  H   H8        1.0  0.8157030633774526  0.3066766654504425  0.3880408056369174  1.0000
  H   H9        1.0  0.890994924463203  0.8545977490123491  0.644891736236353  1.0000
  H   H10       1.0  0.1090050752975251  0.14540225065937035  0.35510826382497007  1.0000
  H   H11       1.0  0.9691826284948775  0.40647395234337014  0.8784071933743218  1.0000
  H   H12       1.0  0.030817371265850657  0.5935260473283493  0.12159280668700133  1.0000
  H   H13       1.0  0.6607783225848596  0.460040135158738  0.49134058115330825  1.0000
  H   H14       1.0  0.3392216773211973  0.5399598656995599  0.5086594189073629  1.0000
  H   H15       1.0  0.8663705783830125  0.3681097054338516  0.5427642019283171  1.0000
  H   H16       1.0  0.13362942137771558  0.6318902942378679  0.457235798133006  1.0000
  H   H17       1.0  0.36310244082383136  0.4643653164527668  0.8883897604614502  1.0000
  H   H18       1.0  0.6368975589368967  0.5356346832189526  0.11161023959987279  1.0000
  H   H19       1.0  0.24622828561305538  0.15929701231996238  0.8400896354071862  1.0000
  H   H20       1.0  0.7537717141476729  0.8407029873517572  0.15991036465413702  1.0000
  H   H21       1.0  0.4937161601094518  0.24472103662785222  0.9180308164991342  1.0000
  H   H22       1.0  0.5062838396512763  0.7552789630438672  0.08196918356218888  1.0000
  H   H23       1.0  0.26443041974694376  0.19673337025207116  0.9726467837967453  1.0000
  H   H24       1.0  0.7355695798008065  0.8032666290723388  0.027353215520973088  1.0000
  H   H25       1.0  0.4460812696789292  0.15420172210109748  0.4702237368211979  1.0000
  H   H26       1.0  0.5539187300817989  0.8457982775706219  0.5297762632401252  1.0000
  H   H27       1.0  0.27091187863304045  0.9677128646282485  0.445996286455717  1.0000
  H   H28       1.0  0.7290881211276876  0.0322871350434709  0.5540037136056061  1.0000
  H   H29       1.0  0.28470718376625986  0.0009384623384787613  0.6291792586812217  1.0000
  H   H30       1.0  0.7152928159944681  0.9990615373332408  0.3708207413801013  1.0000
  H   H31       1.0  0.4691367434254979  0.1799046847409934  0.656020601790659  1.0000
  H   H32       1.0  0.5308632579060846  0.8200953149542012  0.34397939827434526  1.0000
  H   H33       1.0  0.9730140309576556  0.3269295150912625  0.6969482952711102  1.0000
  H   H34       1.0  0.0269859688030725  0.6730704845804569  0.30305170479021276  1.0000
  C   C1        1.0  0.4436288621590102  0.5913226586273153  0.7427266817571924  1.0000
  C   C2        1.0  0.5563711376017179  0.40867734104440406  0.2572733183041307  1.0000
  C   C3        1.0  0.7133782242499046  0.4718206945860643  0.8036657060094063  1.0000
  C   C4        1.0  0.2866217755108234  0.5281793050856551  0.1963342940519168  1.0000
  C   C5        1.0  0.26622411814203056  0.6885291797937098  0.7632761958876334  1.0000
  C   C6        1.0  0.7337758816186977  0.3114708198780097  0.2367238041736897  1.0000
  C   C7        1.0  0.6735916485627315  0.47518701310536426  0.6402224010973355  1.0000
  C   C8        1.0  0.3264083511303477  0.5248129874056241  0.35977759821973093  1.0000
  C   C9        1.0  0.9335896422378763  0.875031851933781  0.8027345132592987  1.0000
  C   C10       1.0  0.06641035766818057  0.12496814892451702  0.19726548680137246  1.0000
  C   C11       1.0  0.2168865832456715  0.7439267039872629  0.8605635975882375  1.0000
  C   C12       1.0  0.7831134166603854  0.25607329687103497  0.1394364024724335  1.0000
  C   C13       1.0  0.14708775406040103  0.7318738075044477  0.6872003893879729  1.0000
  C   C14       1.0  0.852912245700327  0.2681261921672718  0.3127996106733502  1.0000
  C   C15       1.0  0.05089052508185514  0.8354835306450958  0.8804769100399279  1.0000
  C   C16       1.0  0.9491094746788729  0.16451646902662348  0.1195230900213951  1.0000
  C   C17       1.0  0.9813778360776989  0.8243793410783691  0.7058275351275547  1.0000
  C   C18       1.0  0.018622165253883587  0.17562065861682535  0.2941724649374496  1.0000
  C   C19       1.0  0.32031768530633803  0.24268831762986529  0.9125332119861895  1.0000
  C   C20       1.0  0.6796823144543901  0.7573116820418542  0.08746678807513351  1.0000
  C   C21       1.0  0.15574588082634835  0.20724822349126393  0.6042555230092418  1.0000
  C   C22       1.0  0.8442541188667309  0.7927517770197247  0.3957444763078247  1.0000
  C   C23       1.0  0.4051631901555831  0.04721598152642323  0.4985495918604323  1.0000
  C   C24       1.0  0.5948368111759993  0.9527840181687713  0.5014504082045719  1.0000
  C   C25       1.0  0.3355830999927599  0.10583200820602338  0.6006062115867439  1.0000
  C   C26       1.0  0.6644168999132969  0.8941679926522745  0.39939378847392715  1.0000
  N   N1        1.0  0.5359643539080685  0.5452512920835315  0.8193746606076014  1.0000
  N   N2        1.0  0.46403564585265955  0.454748707588188  0.18062533945372175  1.0000
  N   N3        1.0  0.7845244986681483  0.4316983523558483  0.7146547806178671  1.0000
  N   N4        1.0  0.21547550109257976  0.5683016473158712  0.2853452194434559  1.0000
  N   N5        1.0  0.503324473608626  0.5586743478160987  0.6516933028958772  1.0000
  N   N6        1.0  0.4966755278682852  0.4413256530656744  0.34830669716847507  1.0000
  N   N7        1.0  0.8186567562112711  0.437893640769901  0.881269826099031  1.0000
  N   N8        1.0  0.18134324354945702  0.5621063589018186  0.11873017396229213  1.0000
  N   N9        1.0  0.7395445322063987  0.4344923397838785  0.551394102583051  1.0000
  N   N10       1.0  0.26045546755432936  0.5655076598878409  0.4486058974782721  1.0000
  O   O1        1.0  0.26581189666377686  0.40591861688313735  0.9241900146261985  1.0000
  O   O2        1.0  0.73418810324228  0.5940813839751606  0.07580998543447258  1.0000
  O   O3        1.0  0.09777990603575283  0.2547136266732495  0.6940012517512613  1.0000
  O   O4        1.0  0.9022200937249752  0.74528637299847  0.3059987483100619  1.0000
  O   O5        1.0  0.07072075780265348  0.241861801558989  0.5305094552913605  1.0000
  O   O6        1.0  0.9292792436742577  0.758138199322784  0.4694905447729918  1.0000
  Cl  Cl1       1.0  0.7299596640710115  0.9922256072463871  0.8273497298476339  1.0000
  Cl  Cl2       1.0  0.27004033568971664  0.007774392425332287  0.17265027021368917  1.0000
