data_image0
_chemical_formula_structural       H72C104N20O32Br4
_chemical_formula_sum              "H72 C104 N20 O32 Br4"
_cell_length_a       8.921343829041103
_cell_length_b       7.100994433603523
_cell_length_c       37.85952826019447
_cell_angle_alpha    90.0
_cell_angle_beta     94.03894628667076
_cell_angle_gamma    90.0

_space_group_name_H-M_alt    "P 1"
_space_group_IT_number       1

loop_
  _space_group_symop_operation_xyz
  'x, y, z'

loop_
  _atom_site_type_symbol
  _atom_site_label
  _atom_site_symmetry_multiplicity
  _atom_site_fract_x
  _atom_site_fract_y
  _atom_site_fract_z
  _atom_site_occupancy
  H   H1        1.0  0.252137140365545  0.4655893144141275  0.1520555702117421  1.0000
  H   H2        1.0  0.24786285971124555  0.9655893134562671  0.3479444296971361  1.0000
  H   H3        1.0  0.747862859788036  0.5344106864866586  0.8479444296060145  1.0000
  H   H4        1.0  0.7521371405243118  0.03441068603626553  0.6520555703854115  1.0000
  H   H5        1.0  0.8124148324153155  0.43300323056860407  0.09638772465199962  1.0000
  H   H6        1.0  0.6875851678488493  0.9330032310189972  0.4036122753659502  1.0000
  H   H7        1.0  0.18758516782024187  0.5669967689239287  0.903612275430548  1.0000
  H   H8        1.0  0.31241483238670803  0.06699676847353556  0.5963877247165973  1.0000
  H   H9        1.0  0.8653986295217526  0.30756426869802306  0.20805255446463441  1.0000
  H   H10       1.0  0.6346013707424122  0.8075642691484162  0.29194744555331537  1.0000
  H   H11       1.0  0.13460137063182853  0.6924357307945096  0.791947445353122  1.0000
  H   H12       1.0  0.3653986294931451  0.19243573175237  0.7080525545292322  1.0000
  H   H13       1.0  0.6023079042336618  0.7951315090856543  0.1510835966054497  1.0000
  H   H14       1.0  0.8976920960305032  0.2951315086352612  0.34891640341250013  1.0000
  H   H15       1.0  0.39769209591991933  0.20486849040687838  0.8489164032123068  1.0000
  H   H16       1.0  0.10230790420505428  0.7048684908572714  0.6510835966700474  1.0000
  H   H17       1.0  0.5359652435262316  0.6583878347905541  0.20796743568559406  1.0000
  H   H18       1.0  0.9640347567379332  0.15838783434016096  0.29203256433235575  1.0000
  H   H19       1.0  0.46403475670932576  0.34161216470197864  0.7920325643969536  1.0000
  H   H20       1.0  0.035965243497624165  0.8416121651523717  0.7079674357501917  1.0000
  H   H21       1.0  0.7311799537510427  0.6234047134372344  0.25802991172059475  1.0000
  H   H22       1.0  0.7688200465131221  0.12340471298684123  0.2419700882973551  1.0000
  H   H23       1.0  0.26882004648451463  0.3765952874635518  0.7419700883619528  1.0000
  H   H24       1.0  0.23117995372243524  0.8765952865056915  0.7580299117851924  1.0000
  H   H25       1.0  0.9893397477030842  0.7420107027638025  0.25267535112869444  1.0000
  H   H26       1.0  0.5106602525610807  0.24201070372166295  0.24732464888925537  1.0000
  H   H27       1.0  0.010660252450497011  0.2579892967287301  0.747324648689062  1.0000
  H   H28       1.0  0.4893397476744767  0.7579892971791232  0.7526753511932922  1.0000
  H   H29       1.0  0.18146875144888738  0.8716358628180251  0.2157013675561483  1.0000
  H   H30       1.0  0.31853124750719913  0.371635862367632  0.2842986323533983  1.0000
  H   H31       1.0  0.8185312476659659  0.12836413667450755  0.7842986325270676  1.0000
  H   H32       1.0  0.6814687516076542  0.6283641371249006  0.7157013677298177  1.0000
  H   H33       1.0  0.3755246145137785  0.9944827018286169  0.17826370859343302  1.0000
  H   H34       1.0  0.12447538564498829  0.4944827027864772  0.3217362915802363  1.0000
  H   H35       1.0  0.6244753857217787  0.005517297663915826  0.8217362914891144  1.0000
  H   H36       1.0  0.875524613469865  0.5055172981143089  0.6782637085029797  1.0000
  H   H37       1.0  0.4507000569282442  0.09090008956286978  0.11908135896509633  1.0000
  H   H38       1.0  0.0492999431485463  0.5909000886050093  0.3809186409437819  1.0000
  H   H39       1.0  0.5492999421046328  0.9090999113379163  0.8809186408533285  1.0000
  H   H40       1.0  0.950700057087011  0.4090999108875233  0.6190813591387657  1.0000
  H   H41       1.0  0.2612352226485863  0.09677842257528102  0.06738796043960094  1.0000
  H   H42       1.0  0.23876477751018052  0.5967784230256741  0.4326120397340684  1.0000
  H   H43       1.0  0.738764777586971  0.9032215769172517  0.9326120396429467  1.0000
  H   H44       1.0  0.7612352227253768  0.40322157787511204  0.5673879603484792  1.0000
  H   H45       1.0  0.9981867153535003  0.009812093313336382  0.07422639514160688  1.0000
  H   H46       1.0  0.5018132849106643  0.5098120937637295  0.4257736048763429  1.0000
  H   H47       1.0  0.0018132848000807673  0.9901879061791963  0.9257736046761496  1.0000
  H   H48       1.0  0.49818671532489284  0.4901879071370567  0.5742263952062046  1.0000
  H   H49       1.0  0.6744956878871855  0.766106227918745  0.05362567299952793  1.0000
  H   H50       1.0  0.8255043123769792  0.2661062288766054  0.4463743270184218  1.0000
  H   H51       1.0  0.3255043123483718  0.23389377157378766  0.9463743270830195  1.0000
  H   H52       1.0  0.174495687858578  0.7338937720241807  0.5536256730641256  1.0000
  H   H53       1.0  0.6088322454193402  0.6190531722145328  0.9432023144838164  1.0000
  H   H54       1.0  0.8911677548930075  0.1190531717641397  0.5567976855076093  1.0000
  H   H55       1.0  0.39116775473424076  0.38094682868625335  0.056797685333940036  1.0000
  H   H56       1.0  0.10883224534254982  0.8809468277283931  0.4432023145749382  1.0000
  H   H57       1.0  0.4166252829998907  0.8553931842638511  0.05408611580642004  1.0000
  H   H58       1.0  0.08337471707689978  0.3553931852217116  0.4459138841024582  1.0000
  H   H59       1.0  0.5833747171536904  0.14460681522868143  0.9459138840113365  1.0000
  H   H60       1.0  0.9166252831586577  0.6446068156790745  0.5540861159800894  1.0000
  H   H61       1.0  0.3443296957249321  0.7263078105784028  0.9423286438308668  1.0000
  H   H62       1.0  0.15567030440004154  0.2263078101280097  0.5576713560514874  1.0000
  H   H63       1.0  0.655670304428649  0.2736921889141299  0.05767135598688972  1.0000
  H   H64       1.0  0.8443296958355159  0.7736921893645229  0.4423286440310602  1.0000
  H   H65       1.0  0.8519665022167426  0.5797391630837959  0.980670916537114  1.0000
  H   H66       1.0  0.6480334980956052  0.0797391626334029  0.5193290834543116  1.0000
  H   H67       1.0  0.14803349801881466  0.4202608364087367  0.01932908354543348  1.0000
  H   H68       1.0  0.35196650205797586  0.9202608368591297  0.48067091636344483  1.0000
  H   H69       1.0  0.8609282185979897  0.638536656012983  0.02563210686179178  1.0000
  H   H70       1.0  0.6390717816661751  0.13853665556258998  0.4743678931561581  1.0000
  H   H71       1.0  0.1390717816375676  0.3614633434795496  0.9743678932207557  1.0000
  H   H72       1.0  0.360928218487406  0.8614633439299426  0.5256321066615984  1.0000
  C   C1        1.0  0.06630238826201457  0.385206456021949  0.1826880034913707  1.0000
  C   C2        1.0  0.4336976106940719  0.8852064550640886  0.31731199641817587  1.0000
  C   C3        1.0  0.9336976108528388  0.6147935448788371  0.8173119965918452  1.0000
  C   C4        1.0  0.5663023883388051  0.11479354442844407  0.6826880034002489  1.0000
  C   C5        1.0  0.1323031439891398  0.438342689760485  0.15201130475391322  1.0000
  C   C6        1.0  0.3676968549669467  0.938342690210878  0.3479886951556334  1.0000
  C   C7        1.0  0.8676968551257135  0.5616573111403012  0.8479886953293027  1.0000
  C   C8        1.0  0.6323031440659304  0.06165731068990804  0.6520113046627914  1.0000
  C   C9        1.0  0.03792641570003358  0.45054974199950665  0.12116873345726466  1.0000
  C   C10       1.0  0.462073584376757  0.9505497410416462  0.3788312664516136  1.0000
  C   C11       1.0  0.9620735844535474  0.5494502589012795  0.8788312663604918  1.0000
  C   C12       1.0  0.5379264158588003  0.049450258450886415  0.621168733630934  1.0000
  C   C13       1.0  0.8838340411632968  0.41691238004500825  0.12047865705815017  1.0000
  C   C14       1.0  0.6161659591008679  0.9169123804954012  0.37952134295979967  1.0000
  C   C15       1.0  0.11616595907226053  0.5830876194475244  0.8795213430243974  1.0000
  C   C16       1.0  0.38383404113468944  0.08308762040538481  0.620478657122748  1.0000
  C   C17       1.0  0.8244219310859736  0.3672024551463812  0.1521050288490454  1.0000
  C   C18       1.0  0.6755780691781912  0.8672024555967742  0.34789497116890444  1.0000
  C   C19       1.0  0.17557806914958374  0.6327975443461514  0.8478949712335021  1.0000
  C   C20       1.0  0.32442193097538985  0.13279754389575843  0.652105028648852  1.0000
  C   C21       1.0  0.913437924504916  0.3474719665070737  0.18360645812271212  1.0000
  C   C22       1.0  0.5865620757592487  0.8474719655492133  0.3163935418952377  1.0000
  C   C23       1.0  0.08656207564866497  0.6525280343937123  0.8163935416950444  1.0000
  C   C24       1.0  0.4134379244763086  0.15252803394331937  0.6836064581873098  1.0000
  C   C25       1.0  0.8821669082546768  0.899256316802872  0.1349856750026466  1.0000
  C   C26       1.0  0.6178330908887839  0.3992563177607324  0.3650143250159716  1.0000
  C   C27       1.0  0.11783309086017646  0.10074368268966068  0.8650143250805693  1.0000
  C   C28       1.0  0.38216690814409315  0.6007436831400538  0.6349856748024533  1.0000
  C   C29       1.0  0.8373099854867282  0.8406320658064174  0.16817771204039855  1.0000
  C   C30       1.0  0.6626900147774366  0.3406320653560243  0.3318222879775513  1.0000
  C   C31       1.0  0.16269001474882913  0.15936793509436875  0.831822288042149  1.0000
  C   C32       1.0  0.33730998537614443  0.6593679341365083  0.6681777118402051  1.0000
  C   C33       1.0  0.6870543903483068  0.7826196234855816  0.17313870501653547  1.0000
  C   C34       1.0  0.812945609915858  0.2826196230351886  0.32686129500141436  1.0000
  C   C35       1.0  0.3129456098052742  0.21738037600695104  0.826861294801221  1.0000
  C   C36       1.0  0.18705439031969937  0.7173803764573441  0.6731387050811332  1.0000
  C   C37       1.0  0.6499863279433844  0.7071140960537126  0.2047850073184621  1.0000
  C   C38       1.0  0.8500136723207805  0.20711409701157302  0.29521499269948775  1.0000
  C   C39       1.0  0.350013672292173  0.29288590343882004  0.7952149927640855  1.0000
  C   C40       1.0  0.14998632791477687  0.7928859038892131  0.7047850073830598  1.0000
  C   C41       1.0  0.7606901440487516  0.689200847256044  0.2334608446910318  1.0000
  C   C42       1.0  0.7393098550947091  0.1892008468056509  0.2665391553275864  1.0000
  C   C43       1.0  0.23930985506610167  0.3107991522364887  0.7665391553921841  1.0000
  C   C44       1.0  0.2606901439381679  0.8107991526868817  0.7334608444908385  1.0000
  C   C45       1.0  0.9051945388927402  0.7517799570068024  0.2303959849591993  1.0000
  C   C46       1.0  0.5948054602507206  0.2517799579646629  0.2696040150594189  1.0000
  C   C47       1.0  0.09480546022211313  0.24822004248573018  0.7696040151240165  1.0000
  C   C48       1.0  0.4051945399028605  0.7482200429361232  0.7303959847583376  1.0000
  C   C49       1.0  0.9486527079549126  0.8285197397365668  0.19779788172728707  1.0000
  C   C50       1.0  0.5513472923092522  0.32851973928617373  0.30220211829066274  1.0000
  C   C51       1.0  0.051347292198668446  0.1714802597559659  0.8022021180904694  1.0000
  C   C52       1.0  0.4486527079263052  0.6714802602063589  0.6977978817918847  1.0000
  C   C53       1.0  0.09759033958664737  0.8821467737471755  0.1933617935140134  1.0000
  C   C54       1.0  0.40240966049014315  0.38214677329678254  0.30663820639486483  1.0000
  C   C55       1.0  0.90240966064891  0.11785322574535707  0.8066382065685341  1.0000
  C   C56       1.0  0.5975903396634379  0.6178532261957501  0.6933617934228916  1.0000
  C   C57       1.0  0.14192446128613298  0.9433342051784532  0.16047484929825015  1.0000
  C   C58       1.0  0.3580755388726338  0.4433342047280602  0.3395251508754192  1.0000
  C   C59       1.0  0.8580755389494242  0.05666579431407941  0.8395251507842973  1.0000
  C   C60       1.0  0.6419244613629235  0.5566657947644725  0.6604748492071284  1.0000
  C   C61       1.0  0.2931010947455376  0.9973346094296376  0.15553408610657385  1.0000
  C   C62       1.0  0.2068989054132292  0.49733460897924453  0.3444659140670955  1.0000
  C   C63       1.0  0.7068989054900198  0.0026653914711485278  0.8444659139759737  1.0000
  C   C64       1.0  0.7931010948223282  0.5026653919215416  0.6555340860154522  1.0000
  C   C65       1.0  0.33485434463007374  0.051854407638669484  0.12277084806664439  1.0000
  C   C66       1.0  0.16514565552869304  0.5518544066808091  0.37722915210702496  1.0000
  C   C67       1.0  0.6651456556054836  0.9481455932621167  0.8772291520159032  1.0000
  C   C68       1.0  0.8348543447068643  0.44814559281172356  0.6227708479755226  1.0000
  C   C69       1.0  0.2271022590888713  0.05494223712579569  0.09332025312217848  1.0000
  C   C70       1.0  0.2728977410698955  0.5549422375761888  0.40667974705149085  1.0000
  C   C71       1.0  0.772897741146686  0.945057762366737  0.9066797469603689  1.0000
  C   C72       1.0  0.7271022591656618  0.44505776332459734  0.5933202530310567  1.0000
  C   C73       1.0  0.08011311996938891  0.006413781960520111  0.09698222037478958  1.0000
  C   C74       1.0  0.4198868801074016  0.5064137824109132  0.4030177795340886  1.0000
  C   C75       1.0  0.9198868801841922  0.9935862175320126  0.9030177794429669  1.0000
  C   C76       1.0  0.5801131201281556  0.4935862170816195  0.596982220548459  1.0000
  C   C77       1.0  0.03232633094768906  0.9496469449530219  0.13050010823836963  1.0000
  C   C78       1.0  0.4676736691291015  0.4496469459108824  0.36949989167050856  1.0000
  C   C79       1.0  0.967673669205892  0.05035305453951069  0.8694998915793869  1.0000
  C   C80       1.0  0.5323263311064558  0.5503530549899037  0.630500108412039  1.0000
  C   C81       1.0  0.7708043457962419  0.9022207325895378  0.10314423032425599  1.0000
  C   C82       1.0  0.7291956533472188  0.4022207335473981  0.3968557696943622  1.0000
  C   C83       1.0  0.22919565323663516  0.09777926690299492  0.8968557694941689  1.0000
  C   C84       1.0  0.2708043457676345  0.597779267353388  0.6031442303888538  1.0000
  C   C85       1.0  0.6566134506367557  0.6867170838669985  0.9988024863274404  1.0000
  C   C86       1.0  0.8433865496755921  0.18671708341660545  0.5011975136639854  1.0000
  C   C87       1.0  0.34338654959880166  0.3132829156255342  0.001197513755107066  1.0000
  C   C88       1.0  0.1566134504779889  0.8132829160759272  0.49880248615377115  1.0000
  C   C89       1.0  0.5636131062838851  0.6745756773631424  0.9670308366548728  1.0000
  C   C90       1.0  0.9363868940284628  0.17457567691274933  0.532969163336553  1.0000
  C   C91       1.0  0.4363868938696959  0.32542432212939026  0.03296916316288362  1.0000
  C   C92       1.0  0.06361310620709465  0.8254243225797833  0.46703083674599466  1.0000
  C   C93       1.0  0.4516485248098798  0.8066424447390034  0.0286904297671607  1.0000
  C   C94       1.0  0.048351475348886966  0.30664244428861026  0.4713095704065086  1.0000
  C   C95       1.0  0.5483514754256774  0.1933575547535293  0.9713095703153868  1.0000
  C   C96       1.0  0.9516485248866703  0.6933575552039224  0.5286904296760389  1.0000
  C   C97       1.0  0.3578552981627366  0.7951158816969782  0.9982794549282047  1.0000
  C   C98       1.0  0.14214470204421323  0.2951158812465852  0.5017205452189406  1.0000
  C   C99       1.0  0.6421447009521167  0.20488411779555438  0.0017205451550112655  1.0000
  C   C100      1.0  0.8578552981913441  0.7048841182459474  0.49827945486360686  1.0000
  C   C101      1.0  0.4154528265855919  0.7298918902785027  0.9668507976300085  1.0000
  C   C102      1.0  0.08454717362135795  0.2298918898281095  0.5331492025171367  1.0000
  C   C103      1.0  0.5845471736499654  0.27010811062228357  0.033149202452538974  1.0000
  C   C104      1.0  0.9154528254934954  0.7701081096644231  0.4668507975660793  1.0000
  N   N1        1.0  0.16299296737456412  0.3700605506131172  0.2156138864665791  1.0000
  N   N2        1.0  0.3370070327842027  0.8700605510635103  0.2843861137070902  1.0000
  N   N3        1.0  0.8370070328609932  0.6299394488794154  0.7843861136159683  1.0000
  N   N4        1.0  0.6629929674513547  0.1299394484290224  0.7156138863754573  1.0000
  N   N5        1.0  0.10424117251210005  0.49917861549444964  0.08825720819226641  1.0000
  N   N6        1.0  0.39575882756469044  0.9991786145365892  0.41174279171661177  1.0000
  N   N7        1.0  0.895758827641481  0.5008213854063365  0.9117427916254901  1.0000
  N   N8        1.0  0.6042411726708667  0.0008213849559434341  0.5882572083659356  1.0000
  N   N9        1.0  0.66090165960138  0.338994601743185  0.1524056232350824  1.0000
  N   N10       1.0  0.8390983406627849  0.8389946021935781  0.3475943767828674  1.0000
  N   N11       1.0  0.339098340552201  0.6610053977493476  0.847594376582674  1.0000
  N   N12       1.0  0.16090165957277255  0.161005398707208  0.6524056232996802  1.0000
  N   N13       1.0  0.5967653276313044  0.7547403832114083  0.0281859680185833  1.0000
  N   N14       1.0  0.9032346715121563  0.2547403841692687  0.4718140320000349  1.0000
  N   N15       1.0  0.40323467148354886  0.24525961628112436  0.9718140320646327  1.0000
  N   N16       1.0  0.09676532760269703  0.7452596167315174  0.528185968083181  1.0000
  N   N17       1.0  0.8019670931091643  0.6358436557326975  0.0016647726030041697  1.0000
  N   N18       1.0  0.6980329071550005  0.1358436552823045  0.4983352274149456  1.0000
  N   N19       1.0  0.19803290712639307  0.36415634516808854  0.9983352274795434  1.0000
  N   N20       1.0  0.3019670930805568  0.8641563442102281  0.5016647726676019  1.0000
  O   O1        1.0  0.10371800341364527  0.3192580477562135  0.24271208042560063  1.0000
  O   O2        1.0  0.3962819966631453  0.8192580482066066  0.2572879194832776  1.0000
  O   O3        1.0  0.896281996821912  0.6807419517363191  0.757287919656947  1.0000
  O   O4        1.0  0.6037180034904358  0.18074195128592604  0.7427120803344789  1.0000
  O   O5        1.0  0.2979013256333072  0.4095383044152338  0.21426420093798892  1.0000
  O   O6        1.0  0.2020986745254596  0.9095383034573733  0.2857357992356804  1.0000
  O   O7        1.0  0.7020986746022502  0.5904616964855524  0.7857357991445586  1.0000
  O   O8        1.0  0.7979013257100978  0.0904616960351593  0.7142642008468671  1.0000
  O   O9        1.0  0.23520282793168446  0.557988736232437  0.08982125414575917  1.0000
  O   O10       1.0  0.2647971722270824  0.05798873578204401  0.4101787460279101  1.0000
  O   O11       1.0  0.7647971723038729  0.4420112632600956  0.9101787459367884  1.0000
  O   O12       1.0  0.7352028280084749  0.9420112637104886  0.5898212540546374  1.0000
  O   O13       1.0  0.02543055791858563  0.47604884662394353  0.05994051750804455  1.0000
  O   O14       1.0  0.4745694421582049  0.9760488456660831  0.44005948240083365  1.0000
  O   O15       1.0  0.9745694422349954  0.5239511542768426  0.9400594823097119  1.0000
  O   O16       1.0  0.5254305580773524  0.023951153826449554  0.5599405176817139  1.0000
  O   O17       1.0  0.5805375456699653  0.40949640464995696  0.12785171103605938  1.0000
  O   O18       1.0  0.9194624534734955  0.90949640510035  0.3721482889825588  1.0000
  O   O19       1.0  0.4194624534448879  0.5905035948425758  0.8721482890471565  1.0000
  O   O20       1.0  0.08053754564135791  0.09050359439218265  0.6278517111006572  1.0000
  O   O21       1.0  0.6149330001102193  0.2494936528348951  0.17754332593320352  1.0000
  O   O22       1.0  0.8850669990332416  0.7494936532852882  0.3224566740854146  1.0000
  O   O23       1.0  0.385067000125338  0.7505063466576375  0.822456674149344  1.0000
  O   O24       1.0  0.11493300008161184  0.2505063462072445  0.6775433259978013  1.0000
  O   O25       1.0  0.680245435880794  0.035899688752556114  0.09884388466443256  1.0000
  O   O26       1.0  0.8197545643833708  0.5358996877946958  0.40115611535351725  1.0000
  O   O27       1.0  0.31975456435476335  0.96410031214823  0.9011561154181151  1.0000
  O   O28       1.0  0.18024543585218658  0.46410031169783694  0.5988438847290303  1.0000
  O   O29       1.0  0.7802739116831234  0.7607640705132294  0.08191307535272975  1.0000
  O   O30       1.0  0.7197260885810414  0.26076407006283636  0.41808692466522007  1.0000
  O   O31       1.0  0.2197260885524339  0.23923593038755672  0.9180869247298179  1.0000
  O   O32       1.0  0.28027391165451604  0.7392359294296963  0.5819130754173275  1.0000
  Br  Br1       1.0  0.15181930377439248  0.8594207933920401  0.9987108583490559  1.0000
  Br  Br2       1.0  0.3481806952298771  0.359420792941647  0.5012891415339665  1.0000
  Br  Br3       1.0  0.8481806952584846  0.140579207508746  0.0012891414693688393  1.0000
  Br  Br4       1.0  0.6518193038029999  0.6405792065508856  0.49871085828445827  1.0000
