data_image0
_chemical_formula_structural       H72C104N20O32Cl4
_chemical_formula_sum              "H72 C104 N20 O32 Cl4"
_cell_length_a       8.880702189031561
_cell_length_b       7.060607684746665
_cell_length_c       37.97585805039066
_cell_angle_alpha    90.0
_cell_angle_beta     94.25378888161848
_cell_angle_gamma    90.0

_space_group_name_H-M_alt    "P 1"
_space_group_IT_number       1

loop_
  _space_group_symop_operation_xyz
  'x, y, z'

loop_
  _atom_site_type_symbol
  _atom_site_label
  _atom_site_symmetry_multiplicity
  _atom_site_fract_x
  _atom_site_fract_y
  _atom_site_fract_z
  _atom_site_occupancy
  H   H1        1.0  0.3674531349743856  0.1906717764404869  0.20795576572881433  1.0000
  H   H2        1.0  0.1325468652866942  0.6906717761043497  0.2920442344329025  1.0000
  H   H3        1.0  0.6325468654625291  0.8093282228872388  0.7920442343305669  1.0000
  H   H4        1.0  0.8674531351502206  0.309328223223376  0.7079557656264789  1.0000
  H   H5        1.0  0.7518951571741224  0.03227261450770944  0.15108129323053243  1.0000
  H   H6        1.0  0.7481048424626511  0.5322726141715723  0.34891870676625014  1.0000
  H   H7        1.0  0.24810484205162242  0.9677273862363249  0.8489187065651461  1.0000
  H   H8        1.0  0.25189515797426376  0.46772738657246216  0.6510812932931311  1.0000
  H   H9        1.0  0.30756077516810854  0.06712525481678921  0.09654250159057126  1.0000
  H   H10       1.0  0.19243922388180126  0.5671252558969608  0.4034574983074428  1.0000
  H   H11       1.0  0.6924392241428811  0.9328747445109365  0.9034574984691598  1.0000
  H   H12       1.0  0.8075607754291884  0.4328747448470736  0.5965425017522881  1.0000
  H   H13       1.0  0.0986593146129236  0.7054404156685152  0.15111747341685194  1.0000
  H   H14       1.0  0.4013406855629114  0.20544041600465235  0.34888252648081247  1.0000
  H   H15       1.0  0.9013406857387464  0.29455958365921053  0.8488825263784769  1.0000
  H   H16       1.0  0.5986593148740034  0.7945595847393822  0.6511174735785688  1.0000
  H   H17       1.0  0.03348771437105815  0.8389421342297017  0.20818602487648102  1.0000
  H   H18       1.0  0.4665122858047769  0.3389421345658388  0.2918139750211835  1.0000
  H   H19       1.0  0.9665122860658566  0.161057865098024  0.7918139751829002  1.0000
  H   H20       1.0  0.533487714632138  0.6610578647618869  0.7081860250381979  1.0000
  H   H21       1.0  0.2312076388460613  0.8713826847073647  0.2580632438636102  1.0000
  H   H22       1.0  0.2687923614150184  0.3713826850435019  0.24193675629810663  1.0000
  H   H23       1.0  0.7687923615908535  0.12861731462036094  0.741936756195771  1.0000
  H   H24       1.0  0.731207637895971  0.6286173142842238  0.7580632437616243  1.0000
  H   H25       1.0  0.4898146015294485  0.7534363666023276  0.25219555070158267  1.0000
  H   H26       1.0  0.01018539873163117  0.2534363669384648  0.2478044494601342  1.0000
  H   H27       1.0  0.5101853989074662  0.2465636327253981  0.7478044493577987  1.0000
  H   H28       1.0  0.9898146017052836  0.7465636323892609  0.752195550599247  1.0000
  H   H29       1.0  0.6819986762646427  0.624057043916907  0.21486125058901448  1.0000
  H   H30       1.0  0.8180013233721306  0.12405704425304406  0.2851387494077681  1.0000
  H   H31       1.0  0.3180013230463468  0.3759429554108188  0.7851387494707164  1.0000
  H   H32       1.0  0.18199867706478412  0.8759429564909903  0.7148612506516132  1.0000
  H   H33       1.0  0.8751536737978063  0.5019007326601165  0.17703628341871186  1.0000
  H   H34       1.0  0.6248463258389672  0.0019007329962536393  0.3229637165780707  1.0000
  H   H35       1.0  0.12484632663910852  0.49809926666760923  0.8229637166406694  1.0000
  H   H36       1.0  0.3751536734720224  0.9980992663314721  0.6770362834816601  1.0000
  H   H37       1.0  0.9483636967885856  0.40539730966552084  0.11802520734496634  1.0000
  H   H38       1.0  0.5516363028481879  0.9053973093293838  0.3819747926518163  1.0000
  H   H39       1.0  0.05163630252240402  0.5946026910785136  0.8819747927147646  1.0000
  H   H40       1.0  0.4483636975887269  0.094602689998342  0.618025207407565  1.0000
  H   H41       1.0  0.7561818077796942  0.40064033809881566  0.06663078089790987  1.0000
  H   H42       1.0  0.7438181929830043  0.9006403377626786  0.4333692190985231  1.0000
  H   H43       1.0  0.24381819265722052  0.59935966122891  0.9333692191614712  1.0000
  H   H44       1.0  0.25618180736866564  0.09935966156504719  0.5666307806968058  1.0000
  H   H45       1.0  0.4929289933264875  0.4898664951279049  0.07371670837297015  1.0000
  H   H46       1.0  0.007071005808667061  0.9898664947917678  0.4262832917890963  1.0000
  H   H47       1.0  0.507071005984502  0.5101335056161295  0.9262832916867607  1.0000
  H   H48       1.0  0.9929289935023224  0.010133505952266654  0.5737167082706346  1.0000
  H   H49       1.0  0.1715219708863756  0.7321420125306788  0.053350790253880856  1.0000
  H   H50       1.0  0.3284780281635343  0.232142012866816  0.44664920964413324  1.0000
  H   H51       1.0  0.828478028424614  0.2678579882133556  0.9466492098058501  1.0000
  H   H52       1.0  0.6715219710622106  0.7678579878772185  0.5533507901515453  1.0000
  H   H53       1.0  0.09852232156690151  0.8770674475198791  0.9429569093257874  1.0000
  H   H54       1.0  0.4014776785442294  0.37706744785601615  0.5570430907965421  1.0000
  H   H55       1.0  0.9014776777440882  0.12293255180784671  0.057043090733943536  1.0000
  H   H56       1.0  0.5985223218926854  0.6229325514717096  0.44295690926283904  1.0000
  H   H57       1.0  0.8321442086606325  0.7739315132612504  0.9432238274273737  1.0000
  H   H58       1.0  0.6678557919521173  0.27393151359738754  0.5567761725296723  1.0000
  H   H59       1.0  0.16785579169103754  0.22606848606647534  0.0567761723679554  1.0000
  H   H60       1.0  0.33214420848479753  0.7260684857303381  0.4432238275297091  1.0000
  H   H61       1.0  0.9133157956880659  0.6430006824777852  0.054456386583143966  1.0000
  H   H62       1.0  0.5866842050746328  0.14300068281392228  0.445543613413289  1.0000
  H   H63       1.0  0.0866842047488489  0.35699931684994063  0.9455436134762372  1.0000
  H   H64       1.0  0.41331579536228197  0.8569993165138035  0.5544563866460923  1.0000
  H   H65       1.0  0.35882548318065705  0.8545909883982596  0.02440324507943799  1.0000
  H   H66       1.0  0.14117451699517797  0.3545909873180881  0.47559675481822644  1.0000
  H   H67       1.0  0.6411745172562577  0.14540901234577477  0.9755967549799432  1.0000
  H   H68       1.0  0.8588254823158116  0.6454090120096377  0.5244032452415044  1.0000
  H   H69       1.0  0.34714496563324854  0.9149215915162098  0.9796680658261376  1.0000
  H   H70       1.0  0.15285503447788237  0.41492159043603827  0.520331934296192  1.0000
  H   H71       1.0  0.6528550336777411  0.0850784092278246  0.020331934233593255  1.0000
  H   H72       1.0  0.8471449659590324  0.5850784088916875  0.4796680657631894  1.0000
  C   C1        1.0  0.3229386020587781  0.13204103975555337  0.15218956531709302  1.0000
  C   C2        1.0  0.1770613982023016  0.6320410394194163  0.3478104348446238  1.0000
  C   C3        1.0  0.6770613983781367  0.8679589609884811  0.8478104347422883  1.0000
  C   C4        1.0  0.8229386022346132  0.3679589613246182  0.6521895652147575  1.0000
  C   C5        1.0  0.41408593908394187  0.15099088033217234  0.18341809455349906  1.0000
  C   C6        1.0  0.08591405996596797  0.6509908814123438  0.316581905344515  1.0000
  C   C7        1.0  0.5859140601418031  0.8490091189955534  0.8165819052421796  1.0000
  C   C8        1.0  0.9140859393450217  0.34900911933169054  0.6834180947152159  1.0000
  C   C9        1.0  0.5672470592944326  0.11238992101406811  0.18215689635332424  1.0000
  C   C10       1.0  0.932752941468266  0.612389920677931  0.31784310364310875  1.0000
  C   C11       1.0  0.4327529411424821  0.8876100797299663  0.817843103706057  1.0000
  C   C12       1.0  0.06724705888340403  0.3876100800661034  0.6821568961522201  1.0000
  C   C13       1.0  0.6316897665082484  0.05996180058475951  0.1513394081592968  1.0000
  C   C14       1.0  0.8683102331285251  0.559961801664931  0.34866059183748577  1.0000
  C   C15       1.0  0.36831023384342165  0.9400381987429662  0.848660591636032  1.0000
  C   C16       1.0  0.13168976618246456  0.4400381990791034  0.6513394082222451  1.0000
  C   C17       1.0  0.5352458957371509  0.049242342235089755  0.12074427506638853  1.0000
  C   C18       1.0  0.9647541050255477  0.5492423418989526  0.37925572493004445  1.0000
  C   C19       1.0  0.46475410469976386  0.9507576585089447  0.8792557249929928  1.0000
  C   C20       1.0  0.035245895326122254  0.4507576588450818  0.6207442748652844  1.0000
  C   C21       1.0  0.38064288476200814  0.08292712980851709  0.12044802418233291  1.0000
  C   C22       1.0  0.11935711437314638  0.5829271308886886  0.3795519759797335  1.0000
  C   C23       1.0  0.6193571145489815  0.9170728695192086  0.879551975877398  1.0000
  C   C24       1.0  0.8806428849378432  0.4170728698553458  0.6204480240799974  1.0000
  C   C25       1.0  0.37848636175207484  0.5994830472091115  0.13469364708152987  1.0000
  C   C26       1.0  0.1215136384237602  0.0994830461289399  0.3653063528161346  1.0000
  C   C27       1.0  0.6215136385995952  0.40051695353492295  0.865306352713799  1.0000
  C   C28       1.0  0.8784863620131546  0.9005169531987859  0.6346936472432467  1.0000
  C   C29       1.0  0.3349258272504139  0.6578325333149638  0.16791108948987796  1.0000
  C   C30       1.0  0.16507417292542104  0.15783253223479227  0.3320889104077865  1.0000
  C   C31       1.0  0.6650741731865009  0.3421674674290706  0.8320889105695033  1.0000
  C   C32       1.0  0.834925827426249  0.8421674670929334  0.6679110893875424  1.0000
  C   C33       1.0  0.18432709402043274  0.7163020459168119  0.17310246025532558  1.0000
  C   C34       1.0  0.31567290615540233  0.21630204483664028  0.3268975396423389  1.0000
  C   C35       1.0  0.815672906416482  0.2836979548272226  0.8268975398040557  1.0000
  C   C36       1.0  0.6843270941962677  0.7836979544910855  0.67310246015299  1.0000
  C   C37       1.0  0.14800002606058976  0.790473906666329  0.20484543543267025  1.0000
  C   C38       1.0  0.35199997411524525  0.29047390700246606  0.2951545644649942  1.0000
  C   C39       1.0  0.851999974376325  0.20952609266139682  0.7951545646267111  1.0000
  C   C40       1.0  0.6480000262364247  0.7095260937415683  0.7048454353303347  1.0000
  C   C41       1.0  0.26008048934244576  0.8070508424239767  0.23337302502794832  1.0000
  C   C42       1.0  0.239919510918634  0.3070508427601139  0.2666269751337685  1.0000
  C   C43       1.0  0.739919511094469  0.19294915690374898  0.766626975031433  1.0000
  C   C44       1.0  0.7600804895182808  0.6929491565676119  0.7333730249256128  1.0000
  C   C45       1.0  0.40501913349086066  0.7445353933708352  0.22999338764202545  1.0000
  C   C46       1.0  0.09498086677021902  0.24453539370697233  0.2700066125196914  1.0000
  C   C47       1.0  0.594980866946054  0.2554646059568905  0.7700066124173559  1.0000
  C   C48       1.0  0.9050191336666957  0.7554646056207535  0.7299933875396899  1.0000
  C   C49       1.0  0.44774619481584205  0.6689479505005903  0.1973311569530032  1.0000
  C   C50       1.0  0.05225380535999301  0.1689479508367275  0.3026688429446613  1.0000
  C   C51       1.0  0.5522538056210727  0.3310520488271354  0.8026688431063781  1.0000
  C   C52       1.0  0.9477461950769217  0.8310520499073069  0.6973311571147199  1.0000
  C   C53       1.0  0.5970229320224119  0.6150575480042149  0.192663263400238  1.0000
  C   C54       1.0  0.9029770676143617  0.11505754834035198  0.3073367365965446  1.0000
  C   C55       1.0  0.4029770684145029  0.3849424527398196  0.8073367366591433  1.0000
  C   C56       1.0  0.09702293169662801  0.8849424524036825  0.6926632634631863  1.0000
  C   C57       1.0  0.6401543399974021  0.5550140603996191  0.15969935925435216  1.0000
  C   C58       1.0  0.8598456596393712  0.05501405931944752  0.34030064074243044  1.0000
  C   C59       1.0  0.3598456593135875  0.44498594034441535  0.8403006408053787  1.0000
  C   C60       1.0  0.14015433967161825  0.9449859400082783  0.6596993593173005  1.0000
  C   C61       1.0  0.7915230546854521  0.5002781301149064  0.15450747925107594  1.0000
  C   C62       1.0  0.7084769449513213  0.0002781304510435295  0.34549252074570663  1.0000
  C   C63       1.0  0.2084769446255374  0.49972186921281936  0.8454925208086549  1.0000
  C   C64       1.0  0.2915230554855935  0.9997218702929909  0.6545074793136746  1.0000
  C   C65       1.0  0.8324151406264239  0.4456710074400493  0.12179333478384383  1.0000
  C   C66       1.0  0.6675848601362747  0.945671007103912  0.37820666521258917  1.0000
  C   C67       1.0  0.16758485972524617  0.5543289918876765  0.8782066650114851  1.0000
  C   C68       1.0  0.33241514030064007  0.054328992223813585  0.6217933348467922  1.0000
  C   C69       1.0  0.7231815156007344  0.4434028924682181  0.09253743129825659  1.0000
  C   C70       1.0  0.7768184851619644  0.9434028921320811  0.40746256869817643  1.0000
  C   C71       1.0  0.27681848483618043  0.5565971082758163  0.9074625687611247  1.0000
  C   C72       1.0  0.22318151518970583  0.05659710861195342  0.5925374310971526  1.0000
  C   C73       1.0  0.5758295180071715  0.49291769283805964  0.09637594066053944  1.0000
  C   C74       1.0  0.924170481629602  0.9929176925019224  0.4036240593362432  1.0000
  C   C75       1.0  0.42417048130381807  0.5070823079059747  0.9036240593991913  1.0000
  C   C76       1.0  0.0758295188073128  0.0070823068258032236  0.5963759407231382  1.0000
  C   C77       1.0  0.5290901403970037  0.5495196409767968  0.12993009510886747  1.0000
  C   C78       1.0  0.9709098592397697  0.04951963989662528  0.37006990488791514  1.0000
  C   C79       1.0  0.4709098600399108  0.4504803597672376  0.8700699049505137  1.0000
  C   C80       1.0  0.02909014007121999  0.9504803594311004  0.6299300951718158  1.0000
  C   C81       1.0  0.2658891092095036  0.5969068383596529  0.10299301968736534  1.0000
  C   C82       1.0  0.2341108910515761  0.09690683727948127  0.39700698047435146  1.0000
  C   C83       1.0  0.734110891227411  0.4030931623843816  0.8970069803720158  1.0000
  C   C84       1.0  0.7658891082594134  0.9030931620482444  0.6029930195853794  1.0000
  C   C85       1.0  0.15103828002961056  0.8092996092028337  0.9983504612016864  1.0000
  C   C86       1.0  0.34896172008152027  0.3092996095389708  0.5016495389206431  1.0000
  C   C87       1.0  0.8489617204073042  0.19070039154120078  0.0016495388576948725  1.0000
  C   C88       1.0  0.6510382792294693  0.6907003912050637  0.49835046113908776  1.0000
  C   C89       1.0  0.05487129661657722  0.8226844981840136  0.9669973702583864  1.0000
  C   C90       1.0  0.445128703409309  0.3226844985201507  0.5330026295998908  1.0000
  C   C91       1.0  0.9451287038203374  0.17731550256002085  0.033002629800994776  1.0000
  C   C92       1.0  0.5548712969423611  0.6773155022238836  0.46699737019543824  1.0000
  C   C93       1.0  0.9057436597989202  0.7692040434044971  0.9674043756167715  1.0000
  C   C94       1.0  0.5942563408990742  0.26920404374063434  0.5325956246043265  1.0000
  C   C95       1.0  0.09425634063799455  0.23079595733953726  0.03259562444260973  1.0000
  C   C96       1.0  0.4057436595378404  0.7307959570034  0.46740437545505464  1.0000
  C   C97       1.0  0.8497246105755513  0.7040573038407475  0.9989396903352642  1.0000
  C   C98       1.0  0.6502753889112733  0.20405730276057604  0.5010603096221312  1.0000
  C   C99       1.0  0.15027538986136355  0.29594269690328684  0.0010603097241170974  1.0000
  C   C100      1.0  0.3497246103997162  0.7959426965671497  0.4989396904375997  1.0000
  C   C101      1.0  0.946615618330714  0.6915913980816517  0.028957053148004886  1.0000
  C   C102      1.0  0.5533843824319847  0.19159139841778886  0.47104294684842807  1.0000
  C   C103      1.0  0.0533843821062008  0.308408601246074  0.9710429469113764  1.0000
  C   C104      1.0  0.44661561800493005  0.8084086023262456  0.5289570532109531  1.0000
  N   N1        1.0  0.1591561018117916  0.1606961072842429  0.15288045197820385  1.0000
  N   N2        1.0  0.3408438973233629  0.6606961069481058  0.3471195481838626  1.0000
  N   N3        1.0  0.8408438974991979  0.8393038934597915  0.847119548081527  1.0000
  N   N4        1.0  0.6591561019876265  0.33930389237962  0.6528804518758683  1.0000
  N   N5        1.0  0.6657885454906404  0.12555443661246382  0.21484347309587148  1.0000
  N   N6        1.0  0.8342114541461331  0.6255544376926354  0.28515652690091114  1.0000
  N   N7        1.0  0.3342114538203492  0.874445562715262  0.7851565269638594  1.0000
  N   N8        1.0  0.16578854620553699  0.3744455630513991  0.7148434728944177  1.0000
  N   N9        1.0  0.5999326473450298  0.001999455376978155  0.08768022349515404  1.0000
  N   N10       1.0  0.9000673534176689  0.501999455040841  0.41231977650127893  1.0000
  N   N11       1.0  0.40006735300664026  0.9980005453670563  0.9123197763001749  1.0000
  N   N12       1.0  0.09993264701924597  0.4980005442868847  0.5876802235581023  1.0000
  N   N13       1.0  0.0924778506266207  0.7422412877182873  0.027904782954378194  1.0000
  N   N14       1.0  0.40752214963445904  0.24224128805442446  0.47209521720733866  1.0000
  N   N15       1.0  0.907522149810294  0.25775871160943836  0.9720952171050031  1.0000
  N   N16       1.0  0.5924778508024556  0.7577587112733013  0.5279047828520427  1.0000
  N   N17       1.0  0.2979881516298888  0.8578351241756211  0.0006546654294016486  1.0000
  N   N18       1.0  0.20201184863119093  0.3578351245117583  0.4993453347323152  1.0000
  N   N19       1.0  0.7020118488070259  0.1421648751521046  0.9993453346299794  1.0000
  N   N20       1.0  0.7979881506797987  0.6421648748159674  0.5006546653274158  1.0000
  O   O1        1.0  0.07695584238700165  0.09003224345310842  0.12858724854610926  1.0000
  O   O2        1.0  0.4230441567481528  0.5900322431169713  0.37141275161595716  1.0000
  O   O3        1.0  0.9230441569239879  0.9099677558746173  0.8714127515136215  1.0000
  O   O4        1.0  0.5769558425628366  0.40996775621075443  0.6285872484437738  1.0000
  O   O5        1.0  0.11468556148319628  0.25107740001328327  0.1780501943704889  1.0000
  O   O6        1.0  0.3853144376519582  0.751077399677146  0.3219498057915775  1.0000
  O   O7        1.0  0.8853144378277932  0.7489226007307511  0.8219498056892419  1.0000
  O   O8        1.0  0.6146855616590313  0.2489225996505796  0.6780501942681535  1.0000
  O   O9        1.0  0.6080326398090818  0.1784582639709729  0.24193310866169362  1.0000
  O   O10       1.0  0.8919673610388615  0.6784582636348357  0.2580668915987917  1.0000
  O   O11       1.0  0.39196736062783283  0.8215417367730616  0.7580668913976876  1.0000
  O   O12       1.0  0.10803263939805328  0.3215417371091987  0.7419331084605895  1.0000
  O   O13       1.0  0.8004530046801038  0.08245121751455702  0.21336688287587396  1.0000
  O   O14       1.0  0.6995469949566696  0.5824512171784199  0.28663311712090866  1.0000
  O   O15       1.0  0.1995469946308858  0.9175487832294774  0.786633117183857  1.0000
  O   O16       1.0  0.3004530053950004  0.41754878214930585  0.7133668826744203  1.0000
  O   O17       1.0  0.731433426167628  0.9428056999089373  0.08890899872558192  1.0000
  O   O18       1.0  0.7685665734691456  0.4428057002450744  0.4110910012712007  1.0000
  O   O19       1.0  0.2685665742692868  0.05719430083509722  0.9110910013337993  1.0000
  O   O20       1.0  0.2314334258418441  0.5571943004989601  0.5889089987885302  1.0000
  O   O21       1.0  0.5193996029504095  0.026810645549525683  0.05962335837451915  1.0000
  O   O22       1.0  0.9806003966863639  0.5268106452133885  0.4403766416222635  1.0000
  O   O23       1.0  0.4806003974865051  0.9731893537782002  0.9403766416848619  1.0000
  O   O24       1.0  0.019399602624625735  0.4731893541143372  0.5596233584374675  1.0000
  O   O25       1.0  0.17441912741224558  0.46309204476318633  0.09866418340124372  1.0000
  O   O26       1.0  0.32558087163766425  0.9630920444270492  0.40133581649677036  1.0000
  O   O27       1.0  0.825580871898744  0.5369079545645394  0.9013358166584872  1.0000
  O   O28       1.0  0.6744191275880806  0.036907954900676526  0.5986641832989081  1.0000
  O   O29       1.0  0.27624143571518184  0.7387029832103098  0.08173323821491654  1.0000
  O   O30       1.0  0.2237585633347279  0.23870298354644695  0.4182667616830975  1.0000
  O   O31       1.0  0.7237585635958076  0.2612970161174159  0.9182667618448143  1.0000
  O   O32       1.0  0.7762414359762617  0.7612970157812787  0.5817332383766334  1.0000
  Cl  Cl1       1.0  0.6618560430524393  0.6437060396116703  0.9999485101328633  1.0000
  Cl  Cl2       1.0  0.8381439575603106  0.1437060399478074  0.5000514898241825  1.0000
  Cl  Cl3       1.0  0.3381439572992308  0.35629396113236417  5.1489662465589934e-05  1.0000
  Cl  Cl4       1.0  0.16185604287660424  0.8562939607962271  0.4999485102351989  1.0000
