data_image0
_chemical_formula_structural       H60C72N12O16
_chemical_formula_sum              "H60 C72 N12 O16"
_cell_length_a       17.735412027223052
_cell_length_b       7.363435535015281
_cell_length_c       12.104041656502464
_cell_angle_alpha    90.0
_cell_angle_beta     92.25361503714878
_cell_angle_gamma    90.0

_space_group_name_H-M_alt    "P 1"
_space_group_IT_number       1

loop_
  _space_group_symop_operation_xyz
  'x, y, z'

loop_
  _atom_site_type_symbol
  _atom_site_label
  _atom_site_symmetry_multiplicity
  _atom_site_fract_x
  _atom_site_fract_y
  _atom_site_fract_z
  _atom_site_occupancy
  H   H1        1.0  0.878125211997274  0.2576166275890488  0.8173053690339669  1.0000
  H   H2        1.0  0.12187478770086421  0.7576166279275266  0.6826946306439232  1.0000
  H   H3        1.0  0.1218747878805578  0.742383371729845  0.18269463108235634  1.0000
  H   H4        1.0  0.8781252121769677  0.24238337139136729  0.31730536947239996  1.0000
  H   H5        1.0  0.6236600091453801  0.9152850198729978  0.4864273758351932  1.0000
  H   H6        1.0  0.37633999091263654  0.4152850208925818  0.013572623893421377  1.0000
  H   H7        1.0  0.3763399907324517  0.08471497944589602  0.5135726242811299  1.0000
  H   H8        1.0  0.6236600089651954  0.5847149797843738  0.9864273762229018  1.0000
  H   H9        1.0  0.6653236252620098  0.2122034589112156  0.4446740976848007  1.0000
  H   H10       1.0  0.3346763747960068  0.7122034592496933  0.05532590204381386  1.0000
  H   H11       1.0  0.33467637461582195  0.7877965404076783  0.5553259024315225  1.0000
  H   H12       1.0  0.6653236250823162  0.28779654006920047  0.9446740972463676  1.0000
  H   H13       1.0  0.8370111338414185  0.44042244609577746  0.6661975730483133  1.0000
  H   H14       1.0  0.16298886642099963  0.9404224464342553  0.8338024266628083  1.0000
  H   H15       1.0  0.1629888666006932  0.5595775532231164  0.33380242710124153  1.0000
  H   H16       1.0  0.8370111334573234  0.05957755424270033  0.16619757262737306  1.0000
  H   H17       1.0  0.7517482957258552  0.4618429052347156  0.49875411509976847  1.0000
  H   H18       1.0  0.2482517043321614  0.9618429042151316  0.0012458846288460608  1.0000
  H   H19       1.0  0.2482517041519766  0.53815709544224  0.5012458850165546  1.0000
  H   H20       1.0  0.7517482961099503  0.03815709510376218  0.9987541155207088  1.0000
  H   H21       1.0  0.05747177174907862  0.7338670399575632  0.8727852244316044  1.0000
  H   H22       1.0  0.9425282285133396  0.2338670409771471  0.6272147752795172  1.0000
  H   H23       1.0  0.942528228693033  0.2661329593613307  0.12721477571795037  1.0000
  H   H24       1.0  0.057471771364983534  0.7661329596998084  0.3727852240106642  1.0000
  H   H25       1.0  0.020054168347676243  0.43172970753704065  0.7988698070453095  1.0000
  H   H26       1.0  0.9799458319147419  0.9317297078755185  0.701130192665812  1.0000
  H   H27       1.0  0.9799458315301555  0.5682702917818532  0.20113019307101346  1.0000
  H   H28       1.0  0.020054167963089932  0.06827029280143711  0.2988698074505111  1.0000
  H   H29       1.0  0.8352315804283567  0.7760547835078102  0.006548061121343236  1.0000
  H   H30       1.0  0.16476841962966  0.276054784527394  0.49345193860727127  1.0000
  H   H31       1.0  0.16476841944947518  0.22394521581108376  0.9934519389949799  1.0000
  H   H32       1.0  0.8352315808124517  0.7239452161495616  0.5065480615422835  1.0000
  H   H33       1.0  0.8079055999886356  0.4692642983792794  0.9282742383378185  1.0000
  H   H34       1.0  0.19209440027378244  0.9692642987177573  0.5717257613733032  1.0000
  H   H35       1.0  0.19209439988919613  0.5307357009396144  0.07172576177850465  1.0000
  H   H36       1.0  0.8079056001688205  0.03073570060113663  0.4282742379501099  1.0000
  H   H37       1.0  0.9159421147727271  0.039512184036441925  0.01764002535267674  1.0000
  H   H38       1.0  0.08405788528528951  0.539512183016858  0.48235997437593786  1.0000
  H   H39       1.0  0.0840578851051047  0.9604878166405137  0.9823599747636464  1.0000
  H   H40       1.0  0.9159421151568222  0.4604878163020359  0.517640025773617  1.0000
  H   H41       1.0  0.6830831939147528  0.9579615610752219  0.3044722791120915  1.0000
  H   H42       1.0  0.31691680614326395  0.45796156073674404  0.19552772061652307  1.0000
  H   H43       1.0  0.31691680596307914  0.04203843960173376  0.6955277210042317  1.0000
  H   H44       1.0  0.6830831942993391  0.5420384385821498  0.8044722787068901  1.0000
  H   H45       1.0  0.6335769085364711  0.9842329963421022  0.11295453014519438  1.0000
  H   H46       1.0  0.36642309152154556  0.48423299600362435  0.38704546958342023  1.0000
  H   H47       1.0  0.36642309190564065  0.01576700433485347  0.8870454700043605  1.0000
  H   H48       1.0  0.6335769083562863  0.5157670046733313  0.6129545305329029  1.0000
  H   H49       1.0  0.40830975653059615  0.9666907228495519  0.2391347692652598  1.0000
  H   H50       1.0  0.5916902435274205  0.46669072251107424  0.26086523046335475  1.0000
  H   H51       1.0  0.5916902433472357  0.03330927782740356  0.7608652308510634  1.0000
  H   H52       1.0  0.40830975635041133  0.5333092768078196  0.7391347696529684  1.0000
  H   H53       1.0  0.46840957770451386  0.9286274182049736  0.4266451197561178  1.0000
  H   H54       1.0  0.5315904217892228  0.42862741922455766  0.07335487993926507  1.0000
  H   H55       1.0  0.531590422173318  0.07137258111392013  0.5733548803602053  1.0000
  H   H56       1.0  0.46840957808860895  0.571372581452398  0.9266451201770582  1.0000
  H   H57       1.0  0.41952616474182114  0.008611559060775887  0.04370927350263206  1.0000
  H   H58       1.0  0.5804738353161955  0.5086115593992536  0.45629072622598243  1.0000
  H   H59       1.0  0.5804738351360107  0.9913884402581179  0.956290726613691  1.0000
  H   H60       1.0  0.4195261645616363  0.49138844127770187  0.5437092738903406  1.0000
  C   C1        1.0  0.7019301126109505  0.03786101999186192  0.5807659099957078  1.0000
  C   C2        1.0  0.29806988765146764  0.537861018972278  0.9192340897154139  1.0000
  C   C3        1.0  0.2980698872668813  0.9621389806850936  0.4192340901206153  1.0000
  C   C4        1.0  0.7019301122263643  0.4621389803466159  0.08076591040090923  1.0000
  C   C5        1.0  0.7509450683306572  0.029462677980727346  0.6748054440889018  1.0000
  C   C6        1.0  0.24905493193176093  0.5294626769611435  0.82519455562222  1.0000
  C   C7        1.0  0.24905493154717462  0.9705373226962282  0.3251945560274215  1.0000
  C   C8        1.0  0.7509450685103508  0.4705373223577505  0.17480544452733482  1.0000
  C   C9        1.0  0.8011982681120422  0.16894741103989555  0.707000756007372  1.0000
  C   C10       1.0  0.19880173158609604  0.6689474113783733  0.7929992436705179  1.0000
  C   C11       1.0  0.19880173176578964  0.83105258963706  0.29299924410895106  1.0000
  C   C12       1.0  0.8011982682922271  0.3310525892985823  0.2070007556196635  1.0000
  C   C13       1.0  0.7027047870589905  0.1986089214804221  0.5177272534350484  1.0000
  C   C14       1.0  0.29729521263914777  0.6986089218189  0.9822727462428416  1.0000
  C   C15       1.0  0.2972952128193325  0.8013910778384717  0.482272745855133  1.0000
  C   C16       1.0  0.7027047872386841  0.30139107885805566  0.017727253873481542  1.0000
  C   C17       1.0  0.8006031978892907  0.32726654406637634  0.641960151654691  1.0000
  C   C18       1.0  0.19939680237312746  0.8272665430467924  0.8580398480564307  1.0000
  C   C19       1.0  0.19939680255282108  0.6727334566105793  0.3580398484948638  1.0000
  C   C20       1.0  0.8006031975047043  0.17273345627210143  0.14196015205989249  1.0000
  C   C21       1.0  0.7516601794707459  0.3393583997737565  0.5493141550433404  1.0000
  C   C22       1.0  0.2483398207916721  0.8393584001122342  0.9506858446677814  1.0000
  C   C23       1.0  0.2483398204070858  0.6606416009031991  0.4506858450729828  1.0000
  C   C24       1.0  0.7516601796504396  0.16064160056472135  0.04931415548177351  1.0000
  C   C25       1.0  0.9491230236532938  0.7836527871480884  0.9465743707894104  1.0000
  C   C26       1.0  0.050876976609124304  0.28365278816767225  0.5534256289217113  1.0000
  C   C27       1.0  0.050876976788817904  0.21634721217080552  0.053425629360144423  1.0000
  C   C28       1.0  0.9491230232687076  0.7163472125092832  0.44657437119461185  1.0000
  C   C29       1.0  0.0012784848864764097  0.6818640994579686  0.8870925431586084  1.0000
  C   C30       1.0  0.9987215153759418  0.1818640991194908  0.6129074565525132  1.0000
  C   C31       1.0  0.9987215155556354  0.31813590121898694  0.11290745699094636  1.0000
  C   C32       1.0  0.0012784845018900984  0.8181359001994031  0.38709254356380995  1.0000
  C   C33       1.0  0.9808596590524635  0.5122511091546036  0.8459513747783941  1.0000
  C   C34       1.0  0.019140340645183385  0.01225110881612584  0.6540486257256375  1.0000
  C   C35       1.0  0.019140340825368193  0.48774889152235196  0.15404862533792898  1.0000
  C   C36       1.0  0.9808596592326483  0.9877488918608297  0.3459513743906856  1.0000
  C   C37       1.0  0.8779651518264455  0.7051939132633723  0.9609738032591233  1.0000
  C   C38       1.0  0.1220348484359726  0.20519391292489456  0.5390261964519985  1.0000
  C   C39       1.0  0.1220348486156662  0.2948060860555215  0.03902619689043155  1.0000
  C   C40       1.0  0.8779651514418593  0.7948060863939993  0.4609738036643247  1.0000
  C   C41       1.0  0.9653144098247839  0.962908905263511  0.992953847647985  1.0000
  C   C42       1.0  0.03468559043763433  0.4629089049250332  0.5070461520631367  1.0000
  C   C43       1.0  0.034685590053539224  0.03709109541344456  0.007046151642196457  1.0000
  C   C44       1.0  0.9653144100044775  0.5370910943938606  0.4929538480864181  1.0000
  C   C45       1.0  0.8624292365604935  0.5340749194176029  0.9177544341884468  1.0000
  C   C46       1.0  0.13757076370192456  0.034074919079125104  0.5822455655226749  1.0000
  C   C47       1.0  0.13757076331733828  0.46592508125935267  0.08224556592787631  1.0000
  C   C48       1.0  0.8624292367406783  0.9659250802397688  0.4177544338007383  1.0000
  C   C49       1.0  0.515462628068322  0.9775759407099993  0.15789920491938475  1.0000
  C   C50       1.0  0.48453737198969465  0.4775759403715214  0.34210079480922984  1.0000
  C   C51       1.0  0.4845373718095099  0.022424059966956355  0.8421007951969385  1.0000
  C   C52       1.0  0.5154626284524172  0.5224240603054341  0.6578992053403251  1.0000
  C   C53       1.0  0.4810071330266405  0.9970368254177654  0.047357297834726024  1.0000
  C   C54       1.0  0.5189928670308849  0.4970368250792875  0.45264270272003027  1.0000
  C   C55       1.0  0.5189928674154712  0.002963173901128574  0.9526427023148287  1.0000
  C   C56       1.0  0.481007132846947  0.5029631742396063  0.5473572973962928  1.0000
  C   C57       1.0  0.6223984504955592  0.9590647906698003  0.28662669383310313  1.0000
  C   C58       1.0  0.37760154956245745  0.4590647903313226  0.21337330589551143  1.0000
  C   C59       1.0  0.3776015493822727  0.040935210007155234  0.7133733062832199  1.0000
  C   C60       1.0  0.6223984503153744  0.5409352103456331  0.7866266942208118  1.0000
  C   C61       1.0  0.5940643295835197  0.9743422898025155  0.17895133467212454  1.0000
  C   C62       1.0  0.40593567047449697  0.47434229082209944  0.32104866505649005  1.0000
  C   C63       1.0  0.4059356702948034  0.025657709516378337  0.8210486646180569  1.0000
  C   C64       1.0  0.5940643294033349  0.525657709854856  0.6789513350598332  1.0000
  C   C65       1.0  0.46957025167185157  0.9629607030959476  0.24966848874258604  1.0000
  C   C66       1.0  0.5304297483856738  0.46296070275746976  0.2503315118121702  1.0000
  C   C67       1.0  0.5304297482059801  0.03703929758100802  0.7503315113737372  1.0000
  C   C68       1.0  0.4695702514921581  0.5370392965614241  0.7496684883041529  1.0000
  C   C69       1.0  0.5029106960460602  0.9437128018512053  0.3548323359768812  1.0000
  C   C70       1.0  0.4970893040114651  0.4437128015127275  0.1451676645778751  1.0000
  C   C71       1.0  0.49708930439605153  0.05628719882575028  0.6451676641726737  1.0000
  C   C72       1.0  0.5029106958663667  0.5562871978061663  0.8548323355384481  1.0000
  N   N1        1.0  0.7504515952340238  0.867201015020056  0.7436227775834654  1.0000
  N   N2        1.0  0.24954840502839432  0.36720101468157806  0.7563772221276565  1.0000
  N   N3        1.0  0.24954840464380806  0.132798984298838  0.2563772225328578  1.0000
  N   N4        1.0  0.7504515948499287  0.6327989846373159  0.2436227771625251  1.0000
  N   N5        1.0  0.9125282935177526  0.43843620748060236  0.8610031349923153  1.0000
  N   N6        1.0  0.0874717061803858  0.9384362078190801  0.6389968646855747  1.0000
  N   N7        1.0  0.0874717063600794  0.5615637918382915  0.13899686512400786  1.0000
  N   N8        1.0  0.9125282936974461  0.06156379149981372  0.3610031354307484  1.0000
  N   N9        1.0  0.5780121006740574  0.9423725796202816  0.3739335926642582  1.0000
  N   N10       1.0  0.4219878993834682  0.44237257928180396  0.1260664078904981  1.0000
  N   N11       1.0  0.42198789920377455  0.057627419698612105  0.626066407452065  1.0000
  N   N12       1.0  0.5780121010586436  0.55762742003709  0.8739335922590568  1.0000
  O   O1        1.0  0.8480610453205667  0.13959460975954166  0.794848540593089  1.0000
  O   O2        1.0  0.1519389543775715  0.6395946100980195  0.7051514590848011  1.0000
  O   O3        1.0  0.15193895455726505  0.8604053895593522  0.2051514595232342  1.0000
  O   O4        1.0  0.8480610455002604  0.3604053892208744  0.294848541031522  1.0000
  O   O5        1.0  0.6571724777305501  0.8945194085937401  0.5583136874020008  1.0000
  O   O6        1.0  0.342827521967097  0.3945194082552624  0.9416863131020309  1.0000
  O   O7        1.0  0.34282752214728174  0.1054805907251537  0.44168631271432235  1.0000
  O   O8        1.0  0.657172477910735  0.6054805910636315  0.05831368701429228  1.0000
  O   O9        1.0  0.7213349974835882  0.8786096543162816  0.8350532159394373  1.0000
  O   O10       1.0  0.27866500277883  0.3786096539778038  0.6649467837716846  1.0000
  O   O11       1.0  0.2786650029585236  0.12139034636067401  0.1649467842101177  1.0000
  O   O12       1.0  0.721334997099002  0.6213903453410902  0.3350532163446386  1.0000
  O   O13       1.0  0.7788370884706108  0.7263899961594353  0.7075619502177349  1.0000
  O   O14       1.0  0.22116291122752746  0.2263899958209576  0.792438049460155  1.0000
  O   O15       1.0  0.22116291140722105  0.2736100045175202  0.2924380498985881  1.0000
  O   O16       1.0  0.7788370886503043  0.7736100048559981  0.2075619506561682  1.0000
