data_image0
_chemical_formula_structural       H36C32N4O6S2
_chemical_formula_sum              "H36 C32 N4 O6 S2"
_cell_length_a       7.133879049681916
_cell_length_b       9.70650834232118
_cell_length_c       12.16292397613213
_cell_angle_alpha    108.21552973317746
_cell_angle_beta     97.28684950261945
_cell_angle_gamma    104.70984245620173

_space_group_name_H-M_alt    "P 1"
_space_group_IT_number       1

loop_
  _space_group_symop_operation_xyz
  'x, y, z'

loop_
  _atom_site_type_symbol
  _atom_site_label
  _atom_site_symmetry_multiplicity
  _atom_site_fract_x
  _atom_site_fract_y
  _atom_site_fract_z
  _atom_site_occupancy
  H   H1        1.0  0.953319810431008  0.3649728349469436  0.9271275287660193  1.0000
  H   H2        1.0  0.04668018914398573  0.6350271641845894  0.07287247047119808  1.0000
  H   H3        1.0  0.15667509598167095  0.4979789675908358  0.6621341911596338  1.0000
  H   H4        1.0  0.8433249040643676  0.5020210326847534  0.3378658092182727  1.0000
  H   H5        1.0  0.8027590127174832  0.8260411108704887  0.9015128009427387  1.0000
  H   H6        1.0  0.1972409873285555  0.1739588894051005  0.09848719943516772  1.0000
  H   H7        1.0  0.6326046451806535  0.6916507222513338  0.76931770153837  1.0000
  H   H8        1.0  0.367395354865385  0.30834927802425527  0.23068229883953625  1.0000
  H   H9        1.0  0.5644995850297889  0.845214804802126  0.8586259887934399  1.0000
  H   H10       1.0  0.4355004150127243  0.15478519547080524  0.14137401076137388  1.0000
  H   H11       1.0  0.9020608601563097  0.8750818043952291  0.724279974300789  1.0000
  H   H12       1.0  0.09793913988972891  0.1249181958803602  0.2757200260771173  1.0000
  H   H13       1.0  0.6648528483907467  0.8857807492040921  0.6760843997581534  1.0000
  H   H14       1.0  0.33514715165176656  0.11421925106883905  0.32391559979666046  1.0000
  H   H15       1.0  0.7174797045714189  0.10819061339180641  0.8649601926890949  1.0000
  H   H16       1.0  0.2825202954746196  0.8918093868837828  0.13503980768881163  1.0000
  H   H17       1.0  0.9567374497580332  0.1006843835911179  0.9112493882989147  1.0000
  H   H18       1.0  0.04326254981696062  0.8993156155404151  0.08875061093830275  1.0000
  H   H19       1.0  0.9226538596078516  0.02676971778500112  0.602268150857241  1.0000
  H   H20       1.0  0.07734614043818688  0.9732302824905881  0.3977318495206655  1.0000
  H   H21       1.0  0.17801472982635708  0.3590101814579025  0.4685121220250589  1.0000
  H   H22       1.0  0.8219852702196815  0.6409898188176867  0.5314878783528475  1.0000
  H   H23       1.0  0.44191028193162624  0.8050605063962284  0.5079204902085537  1.0000
  H   H24       1.0  0.5580897181144123  0.1949394938793607  0.49207951016935264  1.0000
  H   H25       1.0  0.37202636517971477  0.5256992453010548  0.2817006324017513  1.0000
  H   H26       1.0  0.6279736343988043  0.4743007538331361  0.7182993676585587  1.0000
  H   H27       1.0  0.6035484928145466  0.9600678130503472  0.4306202648441866  1.0000
  H   H28       1.0  0.39645150723149214  0.039932187225241986  0.5693797355337198  1.0000
  H   H29       1.0  0.7365859075508279  0.12443765930270184  0.32076545549918006  1.0000
  H   H30       1.0  0.26341409249168546  0.8755623409702293  0.6792345440556338  1.0000
  H   H31       1.0  0.7332255780975244  0.008847077225194669  0.10703382503725727  1.0000
  H   H32       1.0  0.2667744219449888  0.9911529230477365  0.8929661745175564  1.0000
  H   H33       1.0  0.5928336041142279  0.7264282041852345  0.00269240097855149  1.0000
  H   H34       1.0  0.4071663959282854  0.2735717960876967  0.9973075985762622  1.0000
  H   H35       1.0  0.4544551764673203  0.5621769119785434  0.11190938211613946  1.0000
  H   H36       1.0  0.5455448231111988  0.43782308715564766  0.8880906179441707  1.0000
  C   C1        1.0  0.6891081100486977  0.8125502775831992  0.8255457464508378  1.0000
  C   C2        1.0  0.3108918899973409  0.18744972269239  0.1744542539270687  1.0000
  C   C3        1.0  0.7767338547726086  0.9083062681039198  0.7557080153657111  1.0000
  C   C4        1.0  0.2232661448059105  0.09169373103027126  0.244291984694599  1.0000
  C   C5        1.0  0.843287165723583  0.07716473900859808  0.8313549558162137  1.0000
  C   C6        1.0  0.15671283431893013  0.9228352612643329  0.16864504373860004  1.0000
  C   C7        1.0  0.9269618294456696  0.18514937042341803  0.7723515103532268  1.0000
  C   C8        1.0  0.07303817060036899  0.8148506298521712  0.22764849002467974  1.0000
  C   C9        1.0  0.05893034553227627  0.45420683491025166  0.8056893096685844  1.0000
  C   C10       1.0  0.941069654510237  0.5457931653626796  0.19431068988622943  1.0000
  C   C11       1.0  0.043684848476014025  0.26174597927597343  0.6159265578399645  1.0000
  C   C12       1.0  0.9563151515664992  0.7382540209969577  0.3840734417148493  1.0000
  C   C13       1.0  0.9560180458116949  0.14524512303027223  0.6592540283464612  1.0000
  C   C14       1.0  0.04398195376682423  0.8547548761039188  0.3407459717138489  1.0000
  C   C15       1.0  0.2981507669429237  0.5762135239399765  0.49803655037352923  1.0000
  C   C16       1.0  0.701849233103115  0.4237864763356127  0.5019634500043773  1.0000
  C   C17       1.0  0.3964989584109665  0.6868060894362488  0.44791555999429844  1.0000
  C   C18       1.0  0.6035010411675527  0.31319390969794236  0.5520844400660115  1.0000
  C   C19       1.0  0.42568696501595615  0.6471152003896551  0.33633087579056586  1.0000
  C   C20       1.0  0.5743130350265572  0.35288479988327615  0.6636691237642479  1.0000
  C   C21       1.0  0.5159710645965525  0.7489993109009304  0.2785474731013363  1.0000
  C   C22       1.0  0.48402893544596076  0.2510006893720008  0.7214525264534775  1.0000
  C   C23       1.0  0.5981242872357698  0.9084569361501074  0.33634649648847464  1.0000
  C   C24       1.0  0.4018757128067434  0.09154306412282377  0.6636535030663391  1.0000
  C   C25       1.0  0.6758350062122997  0.0010604651329075919  0.2753768968757437  1.0000
  C   C26       1.0  0.324164993833739  0.9989395351426815  0.7246231035021627  1.0000
  C   C27       1.0  0.6739737204839572  0.935620484083022  0.15485695798442675  1.0000
  C   C28       1.0  0.326026279094562  0.06437951505116914  0.8451430420758833  1.0000
  C   C29       1.0  0.596316889056278  0.7776238430978754  0.09656279554341662  1.0000
  C   C30       1.0  0.4036831109862352  0.22237615717505582  0.9034372040113973  1.0000
  C   C31       1.0  0.5181847790764306  0.6853432524411587  0.15785483350274948  1.0000
  C   C32       1.0  0.48181522096960805  0.3146567478344305  0.842145166875157  1.0000
  N   N1        1.0  0.9774521392982123  0.33693482380608564  0.8413974824970382  1.0000
  N   N2        1.0  0.02254786074782614  0.6630651764695035  0.1586025178808683  1.0000
  N   N3        1.0  0.09163268110393195  0.4117297213227334  0.6936384896032114  1.0000
  N   N4        1.0  0.9083673189385812  0.5882702789501977  0.30636150995160233  1.0000
  O   O1        1.0  0.07970448205954973  0.2351229831825541  0.5139262152581168  1.0000
  O   O2        1.0  0.9202955175189693  0.7648770159516369  0.4860737848021932  1.0000
  O   O3        1.0  0.2658047852924109  0.6200011928350216  0.5998453978403232  1.0000
  O   O4        1.0  0.7341952147536278  0.37999880744056763  0.40015460253758317  1.0000
  O   O5        1.0  0.24664970493933155  0.43091819262509756  0.42799952597346524  1.0000
  O   O6        1.0  0.7533502951067071  0.5690818076504917  0.5720004744044411  1.0000
  S   S1        1.0  0.1152310925468832  0.6368701827084646  0.8942306032188732  1.0000
  S   S2        1.0  0.8847689074956301  0.36312981756446644  0.10576939633594062  1.0000
