data_image0
_chemical_formula_structural       H32C28N4O6S2
_chemical_formula_sum              "H32 C28 N4 O6 S2"
_cell_length_a       8.35226352917089
_cell_length_b       8.484887017974714
_cell_length_c       10.896011340749917
_cell_angle_alpha    73.88893912064891
_cell_angle_beta     84.75069737648104
_cell_angle_gamma    69.56019853312807

_space_group_name_H-M_alt    "P 1"
_space_group_IT_number       1

loop_
  _space_group_symop_operation_xyz
  'x, y, z'

loop_
  _atom_site_type_symbol
  _atom_site_label
  _atom_site_symmetry_multiplicity
  _atom_site_fract_x
  _atom_site_fract_y
  _atom_site_fract_z
  _atom_site_occupancy
  H   H1        1.0  0.3516425349801222  0.6202571803677628  0.43222796818174314  1.0000
  H   H2        1.0  0.6483574651504816  0.37974281852822067  0.5677720322066159  1.0000
  H   H3        1.0  0.3040971632419766  0.14722172214995788  0.23409946637381396  1.0000
  H   H4        1.0  0.6959028376603097  0.8527782780482136  0.7659005336723643  1.0000
  H   H5        1.0  0.6150824612467288  0.21887543247470603  0.27728548257290825  1.0000
  H   H6        1.0  0.38491753965555764  0.7811245677234654  0.7227145174732701  1.0000
  H   H7        1.0  0.4182016607228475  0.3717585757744572  0.20599470265136138  1.0000
  H   H8        1.0  0.5817983389766342  0.6282414244252287  0.7940052974841125  1.0000
  H   H9        1.0  0.8096893261106906  0.01002685334127617  0.15760157004321265  1.0000
  H   H10       1.0  0.190310674791596  0.9899731468568953  0.8423984300029659  1.0000
  H   H11       1.0  0.9157332918312678  0.9675759235653655  0.9437375142724568  1.0000
  H   H12       1.0  0.08426670907101856  0.03242407663280594  0.05626248577372174  1.0000
  H   H13       1.0  0.47463587793740486  0.392639828397638  0.7671725207052592  1.0000
  H   H14       1.0  0.5253641221931991  0.6073601704983455  0.23282747968309986  1.0000
  H   H15       1.0  0.3611096571600304  0.4238666602072603  0.9800894308805926  1.0000
  H   H16       1.0  0.638890344173378  0.5761333386872087  0.019910569418470962  1.0000
  H   H17       1.0  0.888735081839213  0.2131262437691442  0.6889574309453017  1.0000
  H   H18       1.0  0.1112649182913909  0.7868737551268391  0.31104256944305725  1.0000
  H   H19       1.0  0.8401591115628205  0.021853247270614867  0.7154067126481859  1.0000
  H   H20       1.0  0.15984088933946575  0.9781467529275567  0.2845932873979926  1.0000
  H   H21       1.0  0.8147019381030183  0.396178097097373  0.3900488739300309  1.0000
  H   H22       1.0  0.1852980615964636  0.6038219031023128  0.6099511262054431  1.0000
  H   H23       1.0  0.8972752724814547  0.18001703607535244  0.3680903113999399  1.0000
  H   H24       1.0  0.10272472721802724  0.8199829641243334  0.6319096887355339  1.0000
  H   H25       1.0  0.03970384977885149  0.27805549253983397  0.40653582190070814  1.0000
  H   H26       1.0  0.9602961499206306  0.7219445076598517  0.5934641782347659  1.0000
  H   H27       1.0  0.8739608191975841  0.6682632735838191  0.2306919713076433  1.0000
  H   H28       1.0  0.1260391817047022  0.33173672661435244  0.7693080287385351  1.0000
  H   H29       1.0  0.09691836098974135  0.5393354880594574  0.26236708431529304  1.0000
  H   H30       1.0  0.9030816387097407  0.4606645121402284  0.737632915820181  1.0000
  H   H31       1.0  0.017637974682300914  0.6451081589589328  0.09944878517455684  1.0000
  H   H32       1.0  0.9823620250171811  0.35489184124075274  0.9005512149609173  1.0000
  C   C1        1.0  0.46818479432715876  0.8034102485404078  0.40304338518133365  1.0000
  C   C2        1.0  0.5318152053723232  0.19658975165927794  0.5969566149541403  1.0000
  C   C3        1.0  0.6318604475561438  0.71943450084929  0.47200949664382347  1.0000
  C   C4        1.0  0.3681395537772646  0.2805654980451791  0.52799050365524  1.0000
  C   C5        1.0  0.6770736945943355  0.881235385319258  0.4109301278633788  1.0000
  C   C6        1.0  0.3229263051051462  0.11876461488042786  0.5890698722720952  1.0000
  C   C7        1.0  0.5061938712481489  0.9602868608007621  0.3472453736736043  1.0000
  C   C8        1.0  0.49380612845133304  0.039713139398923666  0.6527546264618697  1.0000
  C   C9        1.0  0.5112663611514201  0.24101917616958363  0.21295145316804887  1.0000
  C   C10       1.0  0.4887336397508662  0.7589808240285879  0.7870485468781295  1.0000
  C   C11       1.0  0.579574793106598  0.22183174431820407  0.08288279204324245  1.0000
  C   C12       1.0  0.420425206592884  0.7781682558814818  0.9171172080922316  1.0000
  C   C13       1.0  0.7361036875957818  0.09344771969975525  0.07143625560127424  1.0000
  C   C14       1.0  0.26389631210370007  0.9065522804999304  0.9285637445341999  1.0000
  C   C15       1.0  0.7972543521555807  0.07163829669287561  0.9518971850398396  1.0000
  C   C16       1.0  0.20274564754390123  0.9283617035068101  0.04810281509563432  1.0000
  C   C17       1.0  0.7063754927017468  0.18114957815125501  0.8406536189412984  1.0000
  C   C18       1.0  0.2936245082005395  0.8188504220469165  0.15934638110487997  1.0000
  C   C19       1.0  0.5486446091911379  0.30721193011299996  0.8524285055760383  1.0000
  C   C20       1.0  0.45135539093946614  0.6927880687829834  0.14757149481232068  1.0000
  C   C21       1.0  0.48494135178752723  0.3260718188764478  0.9724150145801912  1.0000
  C   C22       1.0  0.5150586479119548  0.6739281813232378  0.02758498555528278  1.0000
  C   C23       1.0  0.7830766111866951  0.16096649065967  0.7118601610235082  1.0000
  C   C24       1.0  0.21692338851278664  0.8390335095400159  0.28813983911196567  1.0000
  C   C25       1.0  0.9229597395111986  0.30199090291518066  0.35507774385795926  1.0000
  C   C26       1.0  0.0770402613910878  0.6980090972829909  0.6449222561882191  1.0000
  C   C27       1.0  0.9891591028536254  0.5804588614086708  0.19663093211511756  1.0000
  C   C28       1.0  0.010840896845856523  0.41954113879101484  0.8033690680203563  1.0000
  N   N1        1.0  0.3397430557128566  0.7497094934311053  0.3927258986581348  1.0000
  N   N2        1.0  0.6602569439803763  0.2502905067666028  0.607274100560454  1.0000
  N   N3        1.0  0.4249492761331129  0.11459148797632157  0.27113124826775153  1.0000
  N   N4        1.0  0.5750507247691734  0.88540851222185  0.7288687517784268  1.0000
  O   O1        1.0  0.7026312084752206  0.5732553821717005  0.5462010172450267  1.0000
  O   O2        1.0  0.2973687912242613  0.42674461802798536  0.4537989828904472  1.0000
  O   O3        1.0  0.802740085529812  0.9274178745540269  0.40842455369955877  1.0000
  O   O4        1.0  0.1972599153662253  0.07258212564216675  0.5915754454297345  1.0000
  O   O5        1.0  0.10840649078510567  0.2705393962669995  0.14477855694607747  1.0000
  O   O6        1.0  0.8915935093454984  0.7294606026289837  0.8552214434422817  1.0000
  S   S1        1.0  0.9440560454419871  0.3914855165160709  0.1869484255234496  1.0000
  S   S2        1.0  0.05594395425749497  0.6085144836836148  0.8130515746120243  1.0000
