data_image0
_chemical_formula_structural       H38C30N10O6S4
_chemical_formula_sum              "H38 C30 N10 O6 S4"
_cell_length_a       8.325860978412178
_cell_length_b       8.907313621760554
_cell_length_c       13.11086353897318
_cell_angle_alpha    94.32565354853384
_cell_angle_beta     108.06856006513931
_cell_angle_gamma    106.61095370654742

_space_group_name_H-M_alt    "P 1"
_space_group_IT_number       1

loop_
  _space_group_symop_operation_xyz
  'x, y, z'

loop_
  _atom_site_type_symbol
  _atom_site_label
  _atom_site_symmetry_multiplicity
  _atom_site_fract_x
  _atom_site_fract_y
  _atom_site_fract_z
  _atom_site_occupancy
  H   H1        1.0  0.9698249198946725  0.5043254480497998  0.09513148820848746  1.0000
  H   H2        1.0  0.030175080024108764  0.4956745519321559  0.9048685115578029  1.0000
  H   H3        1.0  0.3508846371123279  0.5320117606576351  0.11303150355855103  1.0000
  H   H4        1.0  0.6491153628064533  0.4679882393243208  0.8869684962077392  1.0000
  H   H5        1.0  0.3385819044607701  0.39690645247443335  0.002967387789184152  1.0000
  H   H6        1.0  0.6614180954580111  0.6030935475075225  0.997032611977106  1.0000
  H   H7        1.0  0.5299139579000772  0.4544331933391772  0.12341819663613157  1.0000
  H   H8        1.0  0.470086042018704  0.5455668066427787  0.8765818031301587  1.0000
  H   H9        1.0  0.21515831717115713  0.3991357120149862  0.26227504471377666  1.0000
  H   H10       1.0  0.7848416827476241  0.6008642879669698  0.7377249550525136  1.0000
  H   H11       1.0  0.03882786955951411  0.8008204146195549  0.33629026596176737  1.0000
  H   H12       1.0  0.9611721303648288  0.19917958536794605  0.6637097345686175  1.0000
  H   H13       1.0  0.9130957773765406  0.7172041683831729  0.4798160291307704  1.0000
  H   H14       1.0  0.08690422254224069  0.2827958315987829  0.5201839706355199  1.0000
  H   H15       1.0  0.6610172616935562  0.24008643706156674  0.2958851435057467  1.0000
  H   H16       1.0  0.33898273822522496  0.7599135629203891  0.7041148562605436  1.0000
  H   H17       1.0  0.7976292454082844  0.31951029466546843  0.15579616818365144  1.0000
  H   H18       1.0  0.20237075451605865  0.6804897053220325  0.8442038323467334  1.0000
  H   H19       1.0  0.06002719538930084  0.1251586425212809  0.2850262276631301  1.0000
  H   H20       1.0  0.9399728045350424  0.87484135746622  0.7149737728672547  1.0000
  H   H21       1.0  0.875056114257925  0.9951866933790695  0.5096499406383928  1.0000
  H   H22       1.0  0.1249438856608562  0.0048133066028863344  0.4903500591278975  1.0000
  H   H23       1.0  0.672957855766454  0.8594996969064246  0.5128269533775144  1.0000
  H   H24       1.0  0.32704214415232724  0.1405003030755313  0.4871730463887759  1.0000
  H   H25       1.0  0.689842559594715  0.06239515558275694  0.5029459281659985  1.0000
  H   H26       1.0  0.31015744032406634  0.9376048443991989  0.4970540716002917  1.0000
  H   H27       1.0  0.4357324884640552  0.7830044536231414  0.22409744622974714  1.0000
  H   H28       1.0  0.5642675114547259  0.21699554635881427  0.7759025535365431  1.0000
  H   H29       1.0  0.38918484591108354  0.86482347955365  0.33519959681982153  1.0000
  H   H30       1.0  0.6108151540076977  0.13517652042830589  0.6648004029464688  1.0000
  H   H31       1.0  0.46654035216222467  0.6985167758861018  0.3456859693272687  1.0000
  H   H32       1.0  0.5334596477565565  0.30148322409585393  0.6543140304390215  1.0000
  H   H33       1.0  0.7829855827283937  0.0013738544258579647  0.14467927070121003  1.0000
  H   H34       1.0  0.21701441719038758  0.9986261455560981  0.8553207290650803  1.0000
  H   H35       1.0  0.5591199186582322  0.9523384015040987  0.14397622662391843  1.0000
  H   H36       1.0  0.4408800812605491  0.04766159847785718  0.8560237731423718  1.0000
  H   H37       1.0  0.6657454756786771  0.8054122184904766  0.1543878241254325  1.0000
  H   H38       1.0  0.3342545242401041  0.1945877814914792  0.8456121756408578  1.0000
  C   C1        1.0  0.3838415475663716  0.4255415988974946  0.09235362087572918  1.0000
  C   C2        1.0  0.6161584523524096  0.5744584010844612  0.9076463788905611  1.0000
  C   C3        1.0  0.2943081691896635  0.29073454952621786  0.13745483866395997  1.0000
  C   C4        1.0  0.7056918307291178  0.7092654504557381  0.8625451611023303  1.0000
  C   C5        1.0  0.21891684142809806  0.29513911153963696  0.21553645202366903  1.0000
  C   C6        1.0  0.7810831584906832  0.7048608884423189  0.7844635477426213  1.0000
  C   C7        1.0  0.15005055496076727  0.02316414923114418  0.17404208424310494  1.0000
  C   C8        1.0  0.8499494449635758  0.976835850756357  0.8259579162872798  1.0000
  C   C9        1.0  0.07320072084869408  0.7465311787757613  0.1278854487395808  1.0000
  C   C10       1.0  0.926799279070087  0.25346882120619457  0.8721145510267094  1.0000
  C   C11       1.0  0.925057117610952  0.5670206047182476  0.23517775404106284  1.0000
  C   C12       1.0  0.07494288230782926  0.4329793952637083  0.7648222457252275  1.0000
  C   C13       1.0  0.9574625038815004  0.6785187235328382  0.3279715856005377  1.0000
  C   C14       1.0  0.042537496042842675  0.3214812764546629  0.6720284149298473  1.0000
  C   C15       1.0  0.8845967876288511  0.6323668962400844  0.40696031416512574  1.0000
  C   C16       1.0  0.11540321229549186  0.36763310374741653  0.5930396863652592  1.0000
  C   C17       1.0  0.775909449073514  0.4748050002777242  0.39345301475153704  1.0000
  C   C18       1.0  0.22409055210550477  0.5251949996957503  0.606546985260427  1.0000
  C   C19       1.0  0.7448678736218519  0.36162682190582507  0.30350057724143736  1.0000
  C   C20       1.0  0.2551321262969293  0.6383731780761307  0.696499422524853  1.0000
  C   C21       1.0  0.8200855402558549  0.4069972816272696  0.22583472776692096  1.0000
  C   C22       1.0  0.17991445966292638  0.5930027183546863  0.7741652719993694  1.0000
  C   C23       1.0  0.7636873160938438  0.9796154613780733  0.3017588857262602  1.0000
  C   C24       1.0  0.2363126838249375  0.02038453860388272  0.6982411140400302  1.0000
  C   C25       1.0  0.7296451712309318  0.9616518223193511  0.4785408515996671  1.0000
  C   C26       1.0  0.2703548286878495  0.038348177662604774  0.5214591481666232  1.0000
  C   C27       1.0  0.47887786188270826  0.8095630611710435  0.3129231610260901  1.0000
  C   C28       1.0  0.521122138036073  0.1904369388109124  0.6870768387402001  1.0000
  C   C29       1.0  0.6878531934227857  0.9323626067450318  0.17910889699882832  1.0000
  C   C30       1.0  0.31214680650155735  0.06763739324246908  0.8208911035315565  1.0000
  N   N1        1.0  0.14064504939132658  0.14739859993720691  0.23503932255623128  1.0000
  N   N2        1.0  0.8593549505330164  0.8526014000502941  0.7649606779741537  1.0000
  N   N3        1.0  0.07628276252522306  0.8760248722654232  0.18681772373301347  1.0000
  N   N4        1.0  0.923717237393558  0.1239751277165326  0.8131822760332769  1.0000
  N   N5        1.0  0.9927993984022001  0.6015303501255285  0.15229834127519948  1.0000
  N   N6        1.0  0.00720060151658119  0.3984696498564274  0.8477016584910908  1.0000
  N   N7        1.0  0.6955501131582847  0.42634036642175066  0.47368524443541715  1.0000
  N   N8        1.0  0.30444988676049656  0.5736596335602052  0.526314755330873  1.0000
  N   N9        1.0  0.6618447405089344  0.9167189900697615  0.36004734767928576  1.0000
  N   N10       1.0  0.33815525941540875  0.08328100991773943  0.6399526528510991  1.0000
  O   O1        1.0  0.5979761162864095  0.28494518869356134  0.45821608286974597  1.0000
  O   O2        1.0  0.4020238836379336  0.7150548112939398  0.5417839176606389  1.0000
  O   O3        1.0  0.7268796990178218  0.5273238866899569  0.5549250341377215  1.0000
  O   O4        1.0  0.2731203009009595  0.47267611329199904  0.4450749656285687  1.0000
  O   O5        1.0  0.919686351310434  0.07653913795884577  0.34924148955142326  1.0000
  O   O6        1.0  0.08031364861390901  0.9234608620286551  0.6507585109789616  1.0000
  S   S1        1.0  0.15950036987202257  0.7428753574662499  0.026086667783707464  1.0000
  S   S2        1.0  0.8404996300523205  0.257124642521251  0.9739133327466774  1.0000
  S   S3        1.0  0.26439002151832336  0.09366147143532742  0.08617011631523834  1.0000
  S   S4        1.0  0.7356099784060197  0.9063385285521735  0.9138298842151464  1.0000
