data_image0
_chemical_formula_structural       H30C26N8O8S4Br2
_chemical_formula_sum              "H30 C26 N8 O8 S4 Br2"
_cell_length_a       9.077510818040727
_cell_length_b       10.122224272653805
_cell_length_c       11.351086948061814
_cell_angle_alpha    65.45812560422314
_cell_angle_beta     78.90277180976693
_cell_angle_gamma    65.1474710035982

_space_group_name_H-M_alt    "P 1"
_space_group_IT_number       1

loop_
  _space_group_symop_operation_xyz
  'x, y, z'

loop_
  _atom_site_type_symbol
  _atom_site_label
  _atom_site_symmetry_multiplicity
  _atom_site_fract_x
  _atom_site_fract_y
  _atom_site_fract_z
  _atom_site_occupancy
  H   H1        1.0  0.6746350608603752  0.9102277675140108  0.771221325406033  1.0000
  H   H2        1.0  0.3253649390575215  0.08977223282366117  0.22877867409728184  1.0000
  H   H3        1.0  0.5392862804553387  0.9100674283896271  0.6019326324650508  1.0000
  H   H4        1.0  0.46071371946255796  0.08993257194804509  0.398067367038264  1.0000
  H   H5        1.0  0.9490332901470804  0.5019970276991679  0.578951296292273  1.0000
  H   H6        1.0  0.05096670975734365  0.49800297220341494  0.4210487041796216  1.0000
  H   H7        1.0  0.08822706175035268  0.5047317628937865  0.7429035473403168  1.0000
  H   H8        1.0  0.9117729381675439  0.4952682374438856  0.25709645216299787  1.0000
  H   H9        1.0  0.09050059136248549  0.6062238946078866  0.882873808700604  1.0000
  H   H10       1.0  0.9094994085554112  0.39377610572978533  0.11712619080271082  1.0000
  H   H11       1.0  0.1473524133893447  0.6366393641238213  0.03196967990923457  1.0000
  H   H12       1.0  0.8526475865150794  0.3633606357787616  0.9680303205626599  1.0000
  H   H13       1.0  0.29203675155989617  0.8156834179717911  0.34549879435629205  1.0000
  H   H14       1.0  0.7079632494610673  0.18431658236965787  0.6545012051331934  1.0000
  H   H15       1.0  0.22516941165744767  0.6632858980642234  0.4503515160545625  1.0000
  H   H16       1.0  0.7748305882604489  0.33671410227344856  0.5496484834487522  1.0000
  H   H17       1.0  0.12047531509123616  0.8575013280903545  0.4494163119041814  1.0000
  H   H18       1.0  0.8795246848266606  0.14249867224731744  0.5505836875991333  1.0000
  H   H19       1.0  0.5299880022421947  0.36879187536273683  0.2208601107732579  1.0000
  H   H20       1.0  0.4700119976622294  0.6312081245398461  0.7791398896986367  1.0000
  H   H21       1.0  0.3831796106572768  0.5413267872227432  0.2485281212508954  1.0000
  H   H22       1.0  0.6168203897682455  0.4586732120236976  0.7514718782579065  1.0000
  H   H23       1.0  0.5929450871017107  0.46569339409220695  0.2928576884471718  1.0000
  H   H24       1.0  0.4070549128161859  0.534306606245465  0.7071423110561429  1.0000
  H   H25       1.0  0.6014286463027363  0.725729857819537  0.18629272301431005  1.0000
  H   H26       1.0  0.3985713536016877  0.27427014208304584  0.8137072774575844  1.0000
  H   H27       1.0  0.3977164177404895  0.8234474530035273  0.12438147879275982  1.0000
  H   H28       1.0  0.602283582177407  0.17655254733414477  0.8756185207105549  1.0000
  H   H29       1.0  0.5667322591225521  0.8473441576578444  0.01714830684928506  1.0000
  H   H30       1.0  0.4332677407953446  0.15265584267982762  0.9828516926540296  1.0000
  C   C1        1.0  0.8907575393788749  0.7073043941690114  0.7689077272345  1.0000
  C   C2        1.0  0.10924246052554953  0.2926956057335713  0.2310922732373946  1.0000
  C   C3        1.0  0.7341087965925787  0.8214999067729449  0.729079716643627  1.0000
  C   C4        1.0  0.265891203819471  0.17850009203840683  0.2709202838337547  1.0000
  C   C5        1.0  0.6585997734433875  0.8210163758868004  0.6344361245486152  1.0000
  C   C6        1.0  0.34140022647450924  0.17898362445087157  0.36556387495469944  1.0000
  C   C7        1.0  0.7365948203845448  0.707308059340901  0.5793097989419714  1.0000
  C   C8        1.0  0.2634051795198796  0.2926919405616817  0.42069020152992315  1.0000
  C   C9        1.0  0.8908753948642851  0.5923769946511633  0.6191705929162811  1.0000
  C   C10       1.0  0.109124605040139  0.4076230052514194  0.38082940755561345  1.0000
  C   C11       1.0  0.967702740176556  0.593609282066911  0.712039818192088  1.0000
  C   C12       1.0  0.03229725974134051  0.406390718270761  0.2879601813112269  1.0000
  C   C13       1.0  0.07449198098339481  0.8260804896074824  0.2872369281472774  1.0000
  C   C14       1.0  0.925508018934502  0.17391951073018957  0.7127630713560374  1.0000
  C   C15       1.0  0.9177720960116691  0.9341934698385492  0.26521185693701244  1.0000
  C   C16       1.0  0.08222790389275499  0.06580653006403353  0.7347881435348822  1.0000
  C   C17       1.0  0.015444472617940063  0.795555950056069  0.12043050723150917  1.0000
  C   C18       1.0  0.9845555272864838  0.2044440498465138  0.8795694932403855  1.0000
  C   C19       1.0  0.18379812621601935  0.7889352346519227  0.38845620699338884  1.0000
  C   C20       1.0  0.8162018736884049  0.21106476525066026  0.6115437934785057  1.0000
  C   C21       1.0  0.9265826059275228  0.7836603720243719  0.938981575461227  1.0000
  C   C22       1.0  0.07341739449799935  0.21633962722206904  0.061018424047575  1.0000
  C   C23       1.0  0.5107628876827078  0.4812433497188791  0.22461547644940386  1.0000
  C   C24       1.0  0.48923711222171634  0.5187566501837036  0.7753845240224908  1.0000
  C   C25       1.0  0.5269468378860205  0.7668063006730469  0.10308503241249323  1.0000
  C   C26       1.0  0.4730531620318762  0.23319369966462514  0.8969149670908215  1.0000
  N   N1        1.0  0.9768663901832674  0.6967872894511136  0.8621306611413718  1.0000
  N   N2        1.0  0.02313360973462933  0.3032127108865585  0.13786933836194304  1.0000
  N   N3        1.0  0.1280918914541097  0.7478112983351553  0.20271069930025346  1.0000
  N   N4        1.0  0.8719081084637871  0.2521887020025167  0.7972893002030614  1.0000
  N   N5        1.0  0.04043336277961267  0.7306582424583818  0.029948720471437675  1.0000
  N   N6        1.0  0.9595666371248115  0.26934175744420097  0.9700512800004568  1.0000
  N   N7        1.0  0.6583304081033796  0.7098576562697602  0.4788603380776765  1.0000
  N   N8        1.0  0.3416695918145171  0.2901423440679117  0.5211396614256383  1.0000
  O   O1        1.0  0.7957128902199827  0.8962805609281477  0.9318349906602504  1.0000
  O   O2        1.0  0.2042871102055396  0.10371943831829313  0.06816500884855149  1.0000
  O   O3        1.0  0.7335656885586738  0.6120409276298213  0.4262023423653346  1.0000
  O   O4        1.0  0.26643431185337574  0.38795907118153045  0.5737976581120471  1.0000
  O   O5        1.0  0.5182442652284406  0.8101163515939603  0.447388102936307  1.0000
  O   O6        1.0  0.4817557357790502  0.18988364831239957  0.5526118975217583  1.0000
  O   O7        1.0  0.7303556365791246  0.5284380972057897  0.034493274921527046  1.0000
  O   O8        1.0  0.26964436383292517  0.471561901605562  0.9655067255558547  1.0000
  S   S1        1.0  0.8321870451764287  0.9417072347736288  0.13693804888306776  1.0000
  S   S2        1.0  0.16781295523562098  0.058292764037722905  0.863061951594314  1.0000
  S   S3        1.0  0.5501771456658076  0.6040458923541613  0.06495760670630467  1.0000
  S   S4        1.0  0.44982285423861673  0.39595410754842153  0.9350423937655898  1.0000
  Br  Br1       1.0  0.7964221434343187  0.06813569474296964  0.3543267670199596  1.0000
  Br  Br2       1.0  0.20357785647010532  0.9318643051596132  0.645673233451935  1.0000
