data_image0
_chemical_formula_structural       H136C102N20O20I4
_chemical_formula_sum              "H136 C102 N20 O20 I4"
_cell_length_a       12.025905419384724
_cell_length_b       13.02118546618185
_cell_length_c       19.767357517691476
_cell_angle_alpha    70.51760113336182
_cell_angle_beta     78.75915347017336
_cell_angle_gamma    70.5979061434204

_space_group_name_H-M_alt    "P 1"
_space_group_IT_number       1

loop_
  _space_group_symop_operation_xyz
  'x, y, z'

loop_
  _atom_site_type_symbol
  _atom_site_label
  _atom_site_symmetry_multiplicity
  _atom_site_fract_x
  _atom_site_fract_y
  _atom_site_fract_z
  _atom_site_occupancy
  H   H1        1.0  0.4728565328517944  0.33499058241038293  0.5105890750138327  1.0000
  H   H2        1.0  0.5271434670655987  0.6650094177717145  0.48941092470241543  1.0000
  H   H3        1.0  0.3290024507784829  0.025280915208809877  0.4995225533784754  1.0000
  H   H4        1.0  0.670997549055126  0.974719084729835  0.5004774468767935  1.0000
  H   H5        1.0  0.4937876406101009  0.2948266220168006  0.39505038929906533  1.0000
  H   H6        1.0  0.5062123592235079  0.7051733779218442  0.6049496109562036  1.0000
  H   H7        1.0  0.3134589473442321  0.0625153560550155  0.6147003104098321  1.0000
  H   H8        1.0  0.6865410528632213  0.9374846433117362  0.3852996893089012  1.0000
  H   H9        1.0  0.410985094680539  0.005781837053649386  0.8313694052438901  1.0000
  H   H10       1.0  0.5890149052368541  0.994218163128448  0.16863059447235818  1.0000
  H   H11       1.0  0.3302713809605863  0.07037348451641504  0.03845178028887972  1.0000
  H   H12       1.0  0.6697286189568067  0.9296265156656826  0.9615482194273685  1.0000
  H   H13       1.0  0.4047520845467326  0.933158961108179  0.9647707844575497  1.0000
  H   H14       1.0  0.5952479152868763  0.0668410388304657  0.035229215797719225  1.0000
  H   H15       1.0  0.25955925697750254  0.2780359891133072  0.9763895607130887  1.0000
  H   H16       1.0  0.7404407428561061  0.7219640108253378  0.023610439542180284  1.0000
  H   H17       1.0  0.2799423797851967  0.088958280189351  0.37948635239718326  1.0000
  H   H18       1.0  0.7200576200484121  0.911041719749294  0.6205136478580856  1.0000
  H   H19       1.0  0.41523595585339756  0.9774792424253631  0.3982204410871796  1.0000
  H   H20       1.0  0.5847640440639955  0.02252075775673455  0.6017795586290685  1.0000
  H   H21       1.0  0.4942438628464786  0.05714442166719431  0.26847262558963697  1.0000
  H   H22       1.0  0.5057561370709145  0.9428555785149031  0.7315273741266112  1.0000
  H   H23       1.0  0.3797614771456  0.9912813584681144  0.28029625944469244  1.0000
  H   H24       1.0  0.6202385226880087  0.008718641470530631  0.7197037408105764  1.0000
  H   H25       1.0  0.2643749187523764  0.9475731809410659  0.8271559024220634  1.0000
  H   H26       1.0  0.7356250810812324  0.052426818997579  0.17284409783320553  1.0000
  H   H27       1.0  0.2250780050978705  0.6105023614505278  0.9337631120534902  1.0000
  H   H28       1.0  0.774921995109583  0.38949763791622377  0.06623688766524309  1.0000
  H   H29       1.0  0.2586389951571813  0.9240207334357629  0.7102065845141478  1.0000
  H   H30       1.0  0.7413610047602118  0.07597926674633454  0.28979341520210045  1.0000
  H   H31       1.0  0.2512366617068824  0.7896184823556783  0.9411680422406272  1.0000
  H   H32       1.0  0.7487633382105106  0.21038151782641926  0.05883195747562098  1.0000
  H   H33       1.0  0.3486835142058241  0.6702691110761728  0.46472265154393916  1.0000
  H   H34       1.0  0.6513164856277847  0.32973088886247204  0.5352773487113298  1.0000
  H   H35       1.0  0.10703285775490477  0.9756603185299024  0.5069210222252674  1.0000
  H   H36       1.0  0.892967142078704  0.02433968140874239  0.4930789780300016  1.0000
  H   H37       1.0  0.06940287057969527  0.05521507823631769  0.3784985714011723  1.0000
  H   H38       1.0  0.9305971295439739  0.9447849208869814  0.6215014288565817  1.0000
  H   H39       1.0  0.31659592708414264  0.7503156264054774  0.33638996704986496  1.0000
  H   H40       1.0  0.6834040735819882  0.24968437353119907  0.6636100332045292  1.0000
  H   H41       1.0  0.10094157028029263  0.1209916824539301  0.25262813171888265  1.0000
  H   H42       1.0  0.8990584296371005  0.8790083177281672  0.7473718679973655  1.0000
  H   H43       1.0  0.9970083244527035  0.039215624675893984  0.2870177418523016  1.0000
  H   H44       1.0  0.0029916754646896436  0.9607843755062034  0.7129822578639465  1.0000
  H   H45       1.0  0.9967456072972131  0.1398503506745772  0.1550439403544237  1.0000
  H   H46       1.0  0.0032543925363957486  0.8601496492640677  0.8449560599008452  1.0000
  H   H47       1.0  0.14785934506695272  0.06154174609468824  0.14090949877253545  1.0000
  H   H48       1.0  0.8521406548504405  0.938458254087409  0.8590905009437128  1.0000
  H   H49       1.0  0.9019573748984219  0.8648686155370152  0.14427691989312647  1.0000
  H   H50       1.0  0.09804262493518669  0.13513138440162975  0.8557230803621424  1.0000
  H   H51       1.0  0.9190540420269555  0.914603582325143  0.04850238707407298  1.0000
  H   H52       1.0  0.08094595789043751  0.0853964178569543  0.9514976126421754  1.0000
  H   H53       1.0  0.09111090739522776  0.9829496800912226  0.0648536334289103  1.0000
  H   H54       1.0  0.9088890924383811  0.01705031984742244  0.9351463668263584  1.0000
  H   H55       1.0  0.9411588694890353  0.06374872282314586  0.08055176836525123  1.0000
  H   H56       1.0  0.05884113034457338  0.9362512771154987  0.9194482318900178  1.0000
  H   H57       1.0  0.2190456237784884  0.6320079313075964  0.04622930184956821  1.0000
  H   H58       1.0  0.7809543760551203  0.3679920686310486  0.9537706984057007  1.0000
  H   H59       1.0  0.16661081998147653  0.5636587316336742  0.13551131602615854  1.0000
  H   H60       1.0  0.8333891798521321  0.43634126830497066  0.8644886842291105  1.0000
  H   H61       1.0  0.005346795256291724  0.7412658485621734  0.021242748248218084  1.0000
  H   H62       1.0  0.9946532045773172  0.2587341513764716  0.9787572520070508  1.0000
  H   H63       1.0  0.9609863668310644  0.6807452736329112  0.11399975705302946  1.0000
  H   H64       1.0  0.039013633086328665  0.31925472654918646  0.8860002426632186  1.0000
  H   H65       1.0  0.16347937996285455  0.5730566210814662  0.7753010221997437  1.0000
  H   H66       1.0  0.8365206198707541  0.4269433788571787  0.22469897805552513  1.0000
  H   H67       1.0  0.19827260226761526  0.3992829464944425  0.793232282946499  1.0000
  H   H68       1.0  0.8017273976497779  0.6007170536876549  0.20676771676974912  1.0000
  H   H69       1.0  0.27868308395356267  0.650344816947754  0.6888545837076363  1.0000
  H   H70       1.0  0.7213169158800461  0.34965518299089077  0.31114541654763267  1.0000
  H   H71       1.0  0.40998488335453953  0.30021245788359496  0.6293743510382808  1.0000
  H   H72       1.0  0.5900151165628535  0.6997875422985026  0.3706256486779674  1.0000
  H   H73       1.0  0.30017164916252276  0.6811858681428932  0.5802951556581747  1.0000
  H   H74       1.0  0.699828350671086  0.3188141317957519  0.4197048445970943  1.0000
  H   H75       1.0  0.3599596586807979  0.3073257485624531  0.7337813624189362  1.0000
  H   H76       1.0  0.6400403411528108  0.6926742513761918  0.26621863783633276  1.0000
  H   H77       1.0  0.9535496454281077  0.5144370088248923  0.0772380860980884  1.0000
  H   H78       1.0  0.04645035448928525  0.48556299135720526  0.9227619136181598  1.0000
  H   H79       1.0  0.04042491595634217  0.461015490593886  0.15182760326930092  1.0000
  H   H80       1.0  0.9595750838772666  0.5389845093447588  0.848172396985968  1.0000
  H   H81       1.0  0.9971606075304394  0.3189274114658333  0.0982771682655287  1.0000
  H   H82       1.0  0.002839393135691247  0.6810725884708431  0.9017228319888655  1.0000
  H   H83       1.0  0.10859012148614355  0.3546316650313479  0.02862675767761216  1.0000
  H   H84       1.0  0.8914098784312495  0.6453683351507495  0.9713732420386361  1.0000
  H   H85       1.0  0.4479236191235981  0.18969187051024347  0.15240199952926875  1.0000
  H   H86       1.0  0.552076380793795  0.8103081296718541  0.8475980001869794  1.0000
  H   H87       1.0  0.3554324866904943  0.10501281615073184  0.15563085714828606  1.0000
  H   H88       1.0  0.6445675132268989  0.8949871840313656  0.8443691425679621  1.0000
  H   H89       1.0  0.2595962458626878  0.3576922579606622  0.14666282071777004  1.0000
  H   H90       1.0  0.7404037540547053  0.6423077422214354  0.8533371789984782  1.0000
  H   H91       1.0  0.3070103343193762  0.3093456758334128  0.06847222612526539  1.0000
  H   H92       1.0  0.6929896655980168  0.6906543243486848  0.9315277735909828  1.0000
  H   H93       1.0  0.9200963340075412  0.7286026264818575  0.5702480138152792  1.0000
  H   H94       1.0  0.07990366582606737  0.27139737345678766  0.4297519864399897  1.0000
  H   H95       1.0  0.8655679294493454  0.6169674936409003  0.4032537598012568  1.0000
  H   H96       1.0  0.1344320712167854  0.3830325062957761  0.5967462404531373  1.0000
  H   H97       1.0  0.9867119262720262  0.8663332358838783  0.4361111438769066  1.0000
  H   H98       1.0  0.013288073645367016  0.13366676429821922  0.5638888558393417  1.0000
  H   H99       1.0  0.9468093659459011  0.7414607104707817  0.2946646217527871  1.0000
  H   H100      1.0  0.053190634720229495  0.25853928946589494  0.7053353785016069  1.0000
  H   H101      1.0  0.04002345365420035  0.8156225187891798  0.3072865513976959  1.0000
  H   H102      1.0  0.9599765462631927  0.18437748139291762  0.6927134483185524  1.0000
  H   H103      1.0  0.8845038540357845  0.8824829773342242  0.3019357879665454  1.0000
  H   H104      1.0  0.11549614579782415  0.1175170226044207  0.6980642122887235  1.0000
  H   H105      1.0  0.7466037330984333  0.6118830977995333  0.5838047399914221  1.0000
  H   H106      1.0  0.2533962671090201  0.38811690156721845  0.4161952597273112  1.0000
  H   H107      1.0  0.8925778389684846  0.5207313382691832  0.5990255446188764  1.0000
  H   H108      1.0  0.1074221609489085  0.4792686619129143  0.4009744550973719  1.0000
  H   H109      1.0  0.733530000081289  0.5260833831603974  0.49092551848631977  1.0000
  H   H110      1.0  0.2664699998361039  0.4739166170217002  0.5090744812299284  1.0000
  H   H111      1.0  0.7666276217150827  0.4218939941040294  0.5742640917192009  1.0000
  H   H112      1.0  0.23337237820231035  0.578106006078068  0.42573590799704736  1.0000
  H   H113      1.0  0.8800892587681736  0.4346004488842321  0.5020223035096744  1.0000
  H   H114      1.0  0.11991074114921949  0.5653995512978653  0.49797769620657384  1.0000
  H   H115      1.0  0.4876145198931892  0.5795079182484895  0.15855950233037724  1.0000
  H   H116      1.0  0.5123854800242037  0.4204920819336081  0.8414404973858709  1.0000
  H   H117      1.0  0.13474491801741117  0.6389883066798101  0.2608776875532848  1.0000
  H   H118      1.0  0.8652550818161975  0.3610116932588349  0.7391223127019841  1.0000
  H   H119      1.0  0.5350643022920305  0.3378320452355838  0.27158396143574665  1.0000
  H   H120      1.0  0.46493569754157826  0.6621679547030612  0.7284160388195222  1.0000
  H   H121      1.0  0.5336365110992938  0.3576286425632823  0.17783221370636945  1.0000
  H   H122      1.0  0.4663634888180992  0.6423713576188153  0.8221677860098787  1.0000
  H   H123      1.0  0.4352219644619862  0.28755926191990716  0.24383113299657735  1.0000
  H   H124      1.0  0.5647780353716225  0.7124407380187378  0.7561688672586917  1.0000
  H   H125      1.0  0.24123053794148427  0.4063096150885257  0.28842061129493735  1.0000
  H   H126      1.0  0.758769462182185  0.5936903840347734  0.7115793889628166  1.0000
  H   H127      1.0  0.22449335352595254  0.8064819289129133  0.2154549360600923  1.0000
  H   H128      1.0  0.7755066463076561  0.1935180710257316  0.7845450641951767  1.0000
  H   H129      1.0  0.23016723790927116  0.7967188064258521  0.128009244183451  1.0000
  H   H130      1.0  0.7698327619243375  0.20328119351279272  0.871990756071818  1.0000
  H   H131      1.0  0.44752677899386095  0.7736245681393109  0.20000619632540656  1.0000
  H   H132      1.0  0.5524732216722698  0.22637543179736544  0.7999938039289876  1.0000
  H   H133      1.0  0.36840216625404454  0.9002873464386404  0.13956372483234672  1.0000
  H   H134      1.0  0.6315978335795641  0.09971265350000459  0.8604362754229221  1.0000
  H   H135      1.0  0.4497350441001492  0.7806575645691104  0.10840239115244449  1.0000
  H   H136      1.0  0.5502649557334595  0.2193424353695346  0.8915976091028245  1.0000
  C   C1        1.0  0.27649948598137486  0.45889230243827756  0.8508628402858915  1.0000
  C   C2        1.0  0.7235005139360182  0.54110769774382  0.14913715943035666  1.0000
  C   C3        1.0  0.41358490304069684  0.15724040570587644  0.43869597461297244  1.0000
  C   C4        1.0  0.5864150968766962  0.8427595944762211  0.5613040251032757  1.0000
  C   C5        1.0  0.4433135190209891  0.26545805447635806  0.5086066074292885  1.0000
  C   C6        1.0  0.5566864808126196  0.734541945462287  0.49139339282598044  1.0000
  C   C7        1.0  0.3922664048092779  0.2008809284879122  0.5715475520368047  1.0000
  C   C8        1.0  0.6077335951081154  0.7991190716941853  0.4284524476794434  1.0000
  C   C9        1.0  0.3482650779722391  0.17384814231107057  0.7038868730027639  1.0000
  C   C10       1.0  0.6517349222352145  0.8261518570556811  0.2961131267159695  1.0000
  C   C11       1.0  0.3619956598474061  0.09292216426566414  0.5008203665453991  1.0000
  C   C12       1.0  0.6380043399862027  0.907077835672981  0.4991796337098698  1.0000
  C   C13       1.0  0.45449271196540586  0.24351252396477707  0.44328000794298644  1.0000
  C   C14       1.0  0.5455072878682029  0.7564874759738678  0.5567199923122825  1.0000
  C   C15       1.0  0.3521104760436373  0.11413175142299914  0.5668104617196843  1.0000
  C   C16       1.0  0.6478895237899714  0.8858682485156458  0.4331895385355846  1.0000
  C   C17       1.0  0.2926715021501779  0.2581382912041055  0.8705972471624635  1.0000
  C   C18       1.0  0.7073284976834309  0.7418617087345395  0.1294027530928054  1.0000
  C   C19       1.0  0.3371039557507338  0.18149488676153122  0.8286569654309002  1.0000
  C   C20       1.0  0.6628960441666593  0.8185051134205664  0.17134303428534806  1.0000
  C   C21       1.0  0.37589779353859404  0.06440780509473047  0.8637527549755323  1.0000
  C   C22       1.0  0.6241022066688595  0.9355921942720212  0.13624724474320105  1.0000
  C   C23       1.0  0.3314676885685898  0.10078436994865939  0.9798792717407865  1.0000
  C   C24       1.0  0.6685323124713858  0.8992156294161238  0.020120727977071963  1.0000
  C   C25       1.0  0.3725826517213355  0.02437725681575936  0.9386625745500635  1.0000
  C   C26       1.0  0.6274173481960575  0.9756227433663383  0.06133742516618457  1.0000
  C   C27       1.0  0.2916610448998577  0.21694246408975512  0.9456235878826517  1.0000
  C   C28       1.0  0.7083389557662731  0.7830575358469213  0.05437641237174246  1.0000
  C   C29       1.0  0.3758637044119208  0.06377358209992026  0.3636843247425678  1.0000
  C   C30       1.0  0.6241362954216877  0.9362264178387247  0.6363156755127012  1.0000
  C   C31       1.0  0.3995805604696607  0.0649658162961661  0.28588156956513494  1.0000
  C   C32       1.0  0.6004194393639478  0.9350341836424789  0.7141184306901339  1.0000
  C   C33       1.0  0.22754092944803977  0.6673103059567865  0.8186255996444893  1.0000
  C   C34       1.0  0.7724590704693532  0.33268969422531086  0.18137440007175898  1.0000
  C   C35       1.0  0.23731388142960294  0.7556370643560372  0.7545149257384904  1.0000
  C   C36       1.0  0.7626861184877902  0.24436293582606022  0.2454850739777577  1.0000
  C   C37       1.0  0.25460270483610375  0.8681734672918948  0.8258108871676444  1.0000
  C   C38       1.0  0.7453972950812893  0.1318265328902027  0.1741891125486038  1.0000
  C   C39       1.0  0.23256360824831368  0.6800337218683203  0.8854468131155128  1.0000
  C   C40       1.0  0.7674363918753555  0.3199662772549787  0.11455318714224129  1.0000
  C   C41       1.0  0.24971907421442038  0.8563227313592774  0.759095638371781  1.0000
  C   C42       1.0  0.7502809259092488  0.14367726776402176  0.240904361885973  1.0000
  C   C43       1.0  0.24705301047608227  0.780016491673078  0.8889852717169012  1.0000
  C   C44       1.0  0.7529469893575264  0.2199835082655669  0.11101472853836772  1.0000
  C   C45       1.0  0.21567696495567637  0.8136753368700259  0.6233818778028792  1.0000
  C   C46       1.0  0.7843230349617168  0.1863246633120715  0.3766181219133689  1.0000
  C   C47       1.0  0.288180587502829  0.7554186868527185  0.4459855497580693  1.0000
  C   C48       1.0  0.7118194126208401  0.2445813122705806  0.5540144504996847  1.0000
  C   C49       1.0  0.15201451463760352  0.9266073466224717  0.46948582223049745  1.0000
  C   C50       1.0  0.8479854851960053  0.07339265331617321  0.5305141780247714  1.0000
  C   C51       1.0  0.22927150243435354  0.8175126013440179  0.49530524505272033  1.0000
  C   C52       1.0  0.7707284973992552  0.18248739859462698  0.5046947552025486  1.0000
  C   C53       1.0  0.13217217889611435  0.9714907954940093  0.39655199908926003  1.0000
  C   C54       1.0  0.8678278220600768  0.0285092036273212  0.6034480011676191  1.0000
  C   C55       1.0  0.2694166915449322  0.8000291252550997  0.37356310946359994  1.0000
  C   C56       1.0  0.7305833082886765  0.19997087468354513  0.626436890791669  1.0000
  C   C57       1.0  0.19003258993003186  0.9082413415079499  0.3482619914193699  1.0000
  C   C58       1.0  0.8099674099873612  0.09175865867414765  0.6517380082968782  1.0000
  C   C59       1.0  0.07901354429396523  0.04580136027537696  0.25178465531658245  1.0000
  C   C60       1.0  0.9209864556234277  0.9541986399067207  0.7482153443996657  1.0000
  C   C61       1.0  0.06421543368716054  0.058150301123399674  0.17541661039059306  1.0000
  C   C62       1.0  0.9357845661464481  0.9418496988152454  0.8245833898646758  1.0000
  C   C63       1.0  0.9657039431545764  0.886362500817316  0.09731557820610247  1.0000
  C   C64       1.0  0.034296056762816746  0.11363749936478144  0.9026844215101457  1.0000
  C   C65       1.0  0.007940891104703562  0.9813554308692478  0.10058125986068694  1.0000
  C   C66       1.0  0.9920591088126895  0.018644569312849538  0.8994187398555613  1.0000
  C   C67       1.0  0.14382349572234848  0.6039810138825205  0.07932176945652089  1.0000
  C   C68       1.0  0.8561765041112602  0.39601898605612457  0.9206782307987481  1.0000
  C   C69       1.0  0.03447272899301849  0.7060550627287248  0.07625033970363454  1.0000
  C   C70       1.0  0.9655272709243746  0.29394493745337263  0.9237496600126138  1.0000
  C   C71       1.0  0.042960733086290386  0.46639688330672985  0.09458937296956658  1.0000
  C   C72       1.0  0.9570392667473184  0.5336031166319152  0.9054106272857023  1.0000
  C   C73       1.0  0.07626480343494885  0.34853762540983524  0.08572025809234583  1.0000
  C   C74       1.0  0.9237351963986599  0.6514623745288096  0.9142797421629232  1.0000
  C   C75       1.0  0.3570155975096978  0.181270313588011  0.16807237107188983  1.0000
  C   C76       1.0  0.6429844024076953  0.8187296865940865  0.8319276286443584  1.0000
  C   C77       1.0  0.2708918189874747  0.2859643944013822  0.12554219633901673  1.0000
  C   C78       1.0  0.7291081809299185  0.7140356057807153  0.8744578033772314  1.0000
  C   C79       1.0  0.9168983431480268  0.7287974157359812  0.5157860736534676  1.0000
  C   C80       1.0  0.083101656769366  0.2712025844461163  0.48421392606278063  1.0000
  C   C81       1.0  0.8867924541173561  0.6664814122329034  0.43112483274356933  1.0000
  C   C82       1.0  0.11320754580003685  0.3335185879491942  0.5688751669726788  1.0000
  C   C83       1.0  0.9510557730822985  0.7948625735842507  0.450346876931364  1.0000
  C   C84       1.0  0.04894422683509436  0.2051374265978468  0.5496531227848843  1.0000
  C   C85       1.0  0.9525058222051094  0.8017428002421003  0.3206600853041227  1.0000
  C   C86       1.0  0.047494177628499515  0.19825719969654468  0.6793399149511462  1.0000
  C   C87       1.0  0.8281197062040292  0.5644114442053133  0.5585138409110532  1.0000
  C   C88       1.0  0.1718802937133637  0.43558855597678414  0.44148615880519515  1.0000
  C   C89       1.0  0.8014714753065043  0.4826064944401031  0.5291378251567622  1.0000
  C   C90       1.0  0.1985285246108887  0.5173935057419943  0.47086217455948587  1.0000
  C   C91       1.0  0.405909689072038  0.5660191743709392  0.19053430768288226  1.0000
  C   C92       1.0  0.5940903107615707  0.4339808255677058  0.8094656925723867  1.0000
  C   C93       1.0  0.22388395717535253  0.5920681713770339  0.24613363837806054  1.0000
  C   C94       1.0  0.7761160426582563  0.40793182856161103  0.7538663618772083  1.0000
  C   C95       1.0  0.4791157116148993  0.3543249870117199  0.2293310176134833  1.0000
  C   C96       1.0  0.5208842882187092  0.6456750129269251  0.7706689826417857  1.0000
  C   C97       1.0  0.2761817813377512  0.4773849246903332  0.2595069198412644  1.0000
  C   C98       1.0  0.7238182193283794  0.5226150752463432  0.7404930804131296  1.0000
  C   C99       1.0  0.28218508938535125  0.7697112065741849  0.17402293253667642  1.0000
  C   C100      1.0  0.7178149105320417  0.2302887936079128  0.8259770671795718  1.0000
  C   C101      1.0  0.39383592569857123  0.8070534660755033  0.1542011344165879  1.0000
  C   C102      1.0  0.6061640742188218  0.19294653410659413  0.8457988652996603  1.0000
  N   N1        1.0  0.21485544914634375  0.5667970508365769  0.8133649973238334  1.0000
  N   N2        1.0  0.7851445507710494  0.43320294934552056  0.18663500239241487  1.0000
  N   N3        1.0  0.24949020099017816  0.3748218197155241  0.8353795293285619  1.0000
  N   N4        1.0  0.750509799133491  0.6251781794077751  0.1646204709291922  1.0000
  N   N5        1.0  0.24346568544284436  0.7337343712247578  0.6890405678645438  1.0000
  N   N6        1.0  0.7565343144745488  0.2662656289573396  0.31095943185170427  1.0000
  N   N7        1.0  0.38339021970012066  0.23010320207088136  0.6350762831484875  1.0000
  N   N8        1.0  0.6166097810497945  0.7698967981092475  0.36492371656688577  1.0000
  N   N9        1.0  0.2499226501714372  0.7648751715000153  0.5678138939301608  1.0000
  N   N10       1.0  0.7500773496621715  0.23512482843862972  0.4321861063251082  1.0000
  N   N11       1.0  0.3477906521684723  0.22763455294169302  0.7537421828127556  1.0000
  N   N12       1.0  0.6522093477489206  0.7723654472404047  0.2462578169034926  1.0000
  N   N13       1.0  0.8772233712690518  0.6494999460869917  0.5025981643061246  1.0000
  N   N14       1.0  0.12277662856455704  0.3505000538516533  0.4974018359491444  1.0000
  N   N15       1.0  0.9320866895148807  0.7542944082942279  0.39858527413596223  1.0000
  N   N16       1.0  0.06791331031872798  0.2457055916444172  0.6014147261193067  1.0000
  N   N17       1.0  0.3886652446328337  0.46326114953037256  0.22421358901832106  1.0000
  N   N18       1.0  0.6113347552007751  0.5367388504082723  0.7757864112369479  1.0000
  N   N19       1.0  0.3059003710581325  0.6454095801479773  0.20326577380566946  1.0000
  N   N20       1.0  0.6940996288592605  0.3545904200341202  0.7967342259105787  1.0000
  O   O1        1.0  0.31902725893892686  0.0850259621253051  0.7205746721566655  1.0000
  O   O2        1.0  0.6809727408946818  0.9149740378133397  0.27942532809860343  1.0000
  O   O3        1.0  0.164711182511404  0.9161496560843616  0.6163450029429741  1.0000
  O   O4        1.0  0.835288817405989  0.08385034409773587  0.38365499677327397  1.0000
  O   O5        1.0  0.34964475174080695  0.43914174500352754  0.8935473276837057  1.0000
  O   O6        1.0  0.6503552480928018  0.5608582549351175  0.1064526725715631  1.0000
  O   O7        1.0  0.02727739884455274  0.9663809764989963  0.17247848016792094  1.0000
  O   O8        1.0  0.9727226010728403  0.03361902368310102  0.8275215195483273  1.0000
  O   O9        1.0  0.1745525105333853  0.9444027792675633  0.2762348876584653  1.0000
  O   O10       1.0  0.8254474895902839  0.055597219855735555  0.7237651125992887  1.0000
  O   O11       1.0  0.06504351069122465  0.7890556513230298  0.09507454577114609  1.0000
  O   O12       1.0  0.9349564892261685  0.21094434885906774  0.9049254539451022  1.0000
  O   O13       1.0  0.42800378925718263  0.14285692480314038  0.3717183337712676  1.0000
  O   O14       1.0  0.5719962114089481  0.8571430751335362  0.6282816664831263  1.0000
  O   O15       1.0  0.32674145625475337  0.16886578066831054  0.24317368389591926  1.0000
  O   O16       1.0  0.6732585435788554  0.8311342192703345  0.7568263163593497  1.0000
  O   O17       1.0  0.12799627077020903  0.5231982535629036  0.05105442270830749  1.0000
  O   O18       1.0  0.872003729147184  0.47680174661919383  0.9489455770079408  1.0000
  O   O19       1.0  0.16060604884714053  0.2630223677356816  0.1319870728477968  1.0000
  O   O20       1.0  0.8393939510702525  0.7369776324464158  0.8680129268684514  1.0000
  I   I1        1.0  0.5490950351322954  0.5242318401891637  0.35500574326551076  1.0000
  I   I2        1.0  0.4509049647850977  0.47576815999293387  0.6449942564507374  1.0000
  I   I3        1.0  0.054675645908943804  0.5140402102693792  0.695182054839454  1.0000
  I   I4        1.0  0.9453243548409713  0.4859597899107498  0.30481794487591934  1.0000
