data_image0
_chemical_formula_structural       H104C128N8O12Cl8
_chemical_formula_sum              "H104 C128 N8 O12 Cl8"
_cell_length_a       8.023489118683024
_cell_length_b       11.430006519186513
_cell_length_c       27.252526952627257
_cell_angle_alpha    90.0
_cell_angle_beta     94.81019381390435
_cell_angle_gamma    90.0

_space_group_name_H-M_alt    "P 1"
_space_group_IT_number       1

loop_
  _space_group_symop_operation_xyz
  'x, y, z'

loop_
  _atom_site_type_symbol
  _atom_site_label
  _atom_site_symmetry_multiplicity
  _atom_site_fract_x
  _atom_site_fract_y
  _atom_site_fract_z
  _atom_site_occupancy
  H   H1        1.0  0.4066396640102641  0.3945520741768539  0.8255995209121465  1.0000
  H   H2        1.0  0.09336033645643267  0.8945520742124394  0.674400479135751  1.0000
  H   H3        1.0  0.5933603357844524  0.6054479258943174  0.1744004791313057  1.0000
  H   H4        1.0  0.9066396645847796  0.10544792585873176  0.3255995209082511  1.0000
  H   H5        1.0  0.05730981866374786  0.3232804499102757  0.0072797046596697786  1.0000
  H   H6        1.0  0.4426901818568582  0.8232804499458614  0.49272029536233125  1.0000
  H   H7        1.0  0.9426901811309685  0.6767195501608955  0.9927202953837824  1.0000
  H   H8        1.0  0.5573098179378582  0.1767195501253099  0.5072797046811209  1.0000
  H   H9        1.0  0.819456954034084  0.6608321655215975  0.9153152826116981  1.0000
  H   H10       1.0  0.6805430462812386  0.1608321654860119  0.5846847174537552  1.0000
  H   H11       1.0  0.1805430470071282  0.3391678345495737  0.08468471743230406  1.0000
  H   H12       1.0  0.3194569535134779  0.8391678345851593  0.415315282589697  1.0000
  H   H13       1.0  0.15644191995238912  0.45389157489030335  0.7968711571884157  1.0000
  H   H14       1.0  0.3435580805143077  0.9538915749258889  0.7031288428594819  1.0000
  H   H15       1.0  0.8435580798423273  0.5461084251808679  0.20312884285503652  1.0000
  H   H16       1.0  0.6564419205269046  0.0461084251452823  0.2968711571845204  1.0000
  H   H17       1.0  0.6238899385513319  0.28902822272713113  0.8039243531465372  1.0000
  H   H18       1.0  0.8761100617639905  0.7890282227627167  0.6960756469189161  1.0000
  H   H19       1.0  0.37611006248988027  0.7109717773440402  0.19607564689746487  1.0000
  H   H20       1.0  0.12388993803072584  0.21097177730845448  0.3039243531245362  1.0000
  H   H21       1.0  0.8762045663209831  0.18197119892351832  0.7853309850211708  1.0000
  H   H22       1.0  0.6237954339943395  0.681971198959104  0.7146690150442825  1.0000
  H   H23       1.0  0.12379543472022907  0.818028801147653  0.21466901502283128  1.0000
  H   H24       1.0  0.37620456580037703  0.3180288011120673  0.28533098499916976  1.0000
  H   H25       1.0  0.11760637421282184  0.16225135365294518  0.8496902573417073  1.0000
  H   H26       1.0  0.38239362625387496  0.6622513536885308  0.6503097427061902  1.0000
  H   H27       1.0  0.8823936268283905  0.837748646418226  0.15030974270229494  1.0000
  H   H28       1.0  0.6176063735408415  0.3377486463826404  0.349690257337262  1.0000
  H   H29       1.0  0.0987649291829935  0.24306173100920747  0.9326360570514849  1.0000
  H   H30       1.0  0.4012350700372075  0.7430617310447931  0.5673639429958627  1.0000
  H   H31       1.0  0.9012350706117229  0.7569382690619638  0.06736394299196731  1.0000
  H   H32       1.0  0.5987649297575091  0.2569382690263781  0.4326360570475896  1.0000
  H   H33       1.0  0.4547238568667586  0.7130628207708203  0.8354432118338149  1.0000
  H   H34       1.0  0.04527614235344244  0.21306282073523472  0.6645567882135327  1.0000
  H   H35       1.0  0.5452761429279579  0.2869371793003509  0.16455678820963732  1.0000
  H   H36       1.0  0.9547238574412741  0.7869371793359365  0.3354432118299196  1.0000
  H   H37       1.0  0.6321425448275872  0.7794235851961746  0.868971539802801  1.0000
  H   H38       1.0  0.8678574554877353  0.2794235860354792  0.6310284602626524  1.0000
  H   H39       1.0  0.36785745496712924  0.22057641400010644  0.13102846024065135  1.0000
  H   H40       1.0  0.13214254430698108  0.7205764140356921  0.3689715397807998  1.0000
  H   H41       1.0  0.5557287794837982  0.6402717800480181  0.887789254401474  1.0000
  H   H42       1.0  0.9442712208315245  0.14027178088732264  0.6122107456639792  1.0000
  H   H43       1.0  0.4442712203109183  0.359728219148263  0.11221074564197814  1.0000
  H   H44       1.0  0.05572877896319203  0.8597282191838486  0.38778925437947304  1.0000
  H   H45       1.0  0.8709641720892185  0.4797011262238747  0.6898951776869434  1.0000
  H   H46       1.0  0.6290358268765881  0.9797011262594603  0.8101048220097248  1.0000
  H   H47       1.0  0.1290358276024779  0.5202988738472965  0.3101048219882736  1.0000
  H   H48       1.0  0.3709641728151082  0.020298873811710902  0.18989517766549244  1.0000
  H   H49       1.0  0.9617866265543364  0.38082458594343793  0.7361568315329633  1.0000
  H   H50       1.0  0.5382133725144902  0.8808245859790235  0.76384316853194  1.0000
  H   H51       1.0  0.03821337324037989  0.6191754141277332  0.26384316851048883  1.0000
  H   H52       1.0  0.46178662728022624  0.11917541409214766  0.2361568315115122  1.0000
  H   H53       1.0  0.06972206376489423  0.512174443660479  0.7216998527132674  1.0000
  H   H54       1.0  0.4302779367018026  0.012174443624893378  0.77830014733463  1.0000
  H   H55       1.0  0.9302779360298222  0.4878255555358021  0.27830014733018477  1.0000
  H   H56       1.0  0.569722063092914  0.9878255555713876  0.22169985270882217  1.0000
  H   H57       1.0  0.7799461454108555  0.6039261883545528  0.5982694855881753  1.0000
  H   H58       1.0  0.720053854904467  0.10392618831896717  0.9017305144772779  1.0000
  H   H59       1.0  0.2200538543838609  0.39607381171661843  0.4017305144552769  1.0000
  H   H60       1.0  0.2799461461367452  0.896073811752204  0.09826948556672417  1.0000
  H   H61       1.0  0.08334189710385796  0.648347710699943  0.6106936835552131  1.0000
  H   H62       1.0  0.4166581033628388  0.14834771066435742  0.8893063164926844  1.0000
  H   H63       1.0  0.9166581026908585  0.3516522893712282  0.38930631648823905  1.0000
  H   H64       1.0  0.5833418964318776  0.8516522894068137  0.11069368355076786  1.0000
  H   H65       1.0  0.29111850102216413  0.5108669063485  0.5782255821363559  1.0000
  H   H66       1.0  0.20888149944453266  0.010866906312914343  0.9217744179115416  1.0000
  H   H67       1.0  0.708881500019048  0.4891330937226712  0.4217744179076462  1.0000
  H   H68       1.0  0.7911185003501838  0.9891330937582569  0.07822558213191066  1.0000
  H   H69       1.0  0.19085188189614014  0.33081521726630775  0.5327962120990537  1.0000
  H   H70       1.0  0.3091481185705566  0.8308152173018932  0.9672037879488437  1.0000
  H   H71       1.0  0.8091481178985763  0.6691847828048635  0.46720378794439854  1.0000
  H   H72       1.0  0.6908518812241597  0.16918478276927787  0.032796212094608465  1.0000
  H   H73       1.0  0.5691743796491794  0.4941565694226735  0.7539041041947604  1.0000
  H   H74       1.0  0.930825620563123  0.994156569458259  0.7460958955024578  1.0000
  H   H75       1.0  0.43082562014553705  0.5058434306484977  0.2460958958486918  1.0000
  H   H76       1.0  0.06917437912857326  0.005843430612912158  0.2539041041727594  1.0000
  H   H77       1.0  0.37293060403380685  0.5377394168308353  0.7229036767813967  1.0000
  H   H78       1.0  0.12706939643288992  0.03773941679524961  0.7770963232665009  1.0000
  H   H79       1.0  0.6270693970074053  0.462260583240336  0.27709632326260547  1.0000
  H   H80       1.0  0.8729306033618265  0.9622605832759216  0.2229036767769514  1.0000
  H   H81       1.0  0.6119703437286055  0.34714623069894796  0.6913924848180665  1.0000
  H   H82       1.0  0.8880296564836971  0.8471462307345335  0.8086075148791518  1.0000
  H   H83       1.0  0.38802965606611095  0.6528537693722233  0.3086075152253857  1.0000
  H   H84       1.0  0.11197034320799931  0.15285376933663766  0.1913924847960654  1.0000
  H   H85       1.0  0.509448684064162  0.45732523259943236  0.6538380882810672  1.0000
  H   H86       1.0  0.9905513162511606  0.957325232635018  0.8461619117843862  1.0000
  H   H87       1.0  0.4905513157305544  0.5426747674717389  0.3461619117623851  1.0000
  H   H88       1.0  0.009448683543555908  0.042674767436153255  0.15383808825906609  1.0000
  H   H89       1.0  0.23552042097053544  0.36454052174036283  0.6615834170586838  1.0000
  H   H90       1.0  0.26447957949616135  0.8645405217759485  0.8384165829892136  1.0000
  H   H91       1.0  0.7644795788241809  0.6354594783308084  0.3384165829847684  1.0000
  H   H92       1.0  0.7355204215450509  0.13545947829522276  0.1615834170547885  1.0000
  H   H93       1.0  0.3668494655783318  0.24217662740204698  0.6529387935246428  1.0000
  H   H94       1.0  0.13315053364186916  0.7421766274376327  0.8470612065227048  1.0000
  H   H95       1.0  0.6331505342163846  0.7578233726691243  0.34706120651880945  1.0000
  H   H96       1.0  0.8668494661528473  0.25782337263353866  0.15293879352074735  1.0000
  H   H97       1.0  0.19483301532025243  0.2542896642378172  0.7365917250889924  1.0000
  H   H98       1.0  0.3051669838999485  0.7542896642734028  0.7634082749583551  1.0000
  H   H99       1.0  0.8051669844744641  0.745710335833354  0.26340827495445984  1.0000
  H   H100      1.0  0.6948330158947679  0.2457103357977684  0.23659172508509704  1.0000
  H   H101      1.0  0.4070251061943597  0.20406354152858375  0.7408478171629498  1.0000
  H   H102      1.0  0.09297489302584118  0.7040635415641694  0.7591521828843977  1.0000
  H   H103      1.0  0.5929748936003567  0.7959364585425874  0.2591521828805024  1.0000
  H   H104      1.0  0.9070251067688753  0.29593645850700184  0.24084781715905446  1.0000
  C   C1        1.0  0.8944696958043991  0.6168348747802629  0.8894925848184516  1.0000
  C   C2        1.0  0.6055303045109234  0.11683487474467719  0.6105074152470016  1.0000
  C   C3        1.0  0.10553030399031729  0.3831651252909084  0.11050741522500059  1.0000
  C   C4        1.0  0.39446969528379305  0.8831651253264939  0.38949258479645055  1.0000
  C   C5        1.0  0.8303007347201534  0.6018748159462658  0.8412005113015734  1.0000
  C   C6        1.0  0.6696992643486732  0.1018748167855703  0.6587994887633299  1.0000
  C   C7        1.0  0.1696992650745629  0.39812518325001534  0.15879948874187882  1.0000
  C   C8        1.0  0.3303007354460432  0.898125183285601  0.34120051128012224  1.0000
  C   C9        1.0  0.9274685086532326  0.5431307890839094  0.8071894128038621  1.0000
  C   C10       1.0  0.57253149166209  0.04313078904832386  0.6928105872615912  1.0000
  C   C11       1.0  0.07253149238797969  0.45686921098726174  0.1928105872401399  1.0000
  C   C12       1.0  0.42746850813262643  0.9568692101479572  0.3071894127818611  1.0000
  C   C13       1.0  0.0833843051172243  0.49960244295699846  0.8227524828024615  1.0000
  C   C14       1.0  0.41661569534947246  0.999602442992584  0.6772475172454359  1.0000
  C   C15       1.0  0.916615694677492  0.5003975571141728  0.17724751724099067  1.0000
  C   C16       1.0  0.583384304445244  0.00039755707858716145  0.3227524827980163  1.0000
  C   C17       1.0  0.15095050376595448  0.5140332623728161  0.8720098313449199  1.0000
  C   C18       1.0  0.3490494954542465  0.014033262337230573  0.6279901687024275  1.0000
  C   C19       1.0  0.8490494960287619  0.4859667368234649  0.1279901686985323  1.0000
  C   C20       1.0  0.6509505043404699  0.9859667368590506  0.3720098313410246  1.0000
  C   C21       1.0  0.31216451101261966  0.4715043749934416  0.8893860435431076  1.0000
  C   C22       1.0  0.18783548945407705  0.9715043750290272  0.6106139565047899  1.0000
  C   C23       1.0  0.6878354887820968  0.5284956242028394  0.11061395650034463  1.0000
  C   C24       1.0  0.8121645103406394  0.028495624167253826  0.3893860435386623  1.0000
  C   C25       1.0  0.38541847629460935  0.48733842108048453  0.9381046768035438  1.0000
  C   C26       1.0  0.11458152417208736  0.9873384211160702  0.5618953232443535  1.0000
  C   C27       1.0  0.6145815235001069  0.5126615789906867  0.0618953232399083  1.0000
  C   C28       1.0  0.8854184768691249  0.012661578955101071  0.43810467679964865  1.0000
  C   C29       1.0  0.5489421095523871  0.4360500995020186  0.9399146642746274  1.0000
  C   C30       1.0  0.9510578895164397  0.9360500995376042  0.5600853357902759  1.0000
  C   C31       1.0  0.4510578902423293  0.5639499005691526  0.0600853357688247  1.0000
  C   C32       1.0  0.0489421102782768  0.06394990053356701  0.4399146642531764  1.0000
  C   C33       1.0  0.5677840096346574  0.38961160980308385  0.8925204361529997  1.0000
  C   C34       1.0  0.9322159894341693  0.8896116098386694  0.6074795639119036  1.0000
  C   C35       1.0  0.43221599016005896  0.6103883902680873  0.1074795638904525  1.0000
  C   C36       1.0  0.06778401036054714  0.11038839023250177  0.39252043613154863  1.0000
  C   C37       1.0  0.7124860862516046  0.3283396298768778  0.8795728372384876  1.0000
  C   C38       1.0  0.787513914063718  0.8283396299124635  0.6204271628269656  1.0000
  C   C39       1.0  0.2875139135431119  0.6716603701942934  0.1204271628049646  1.0000
  C   C40       1.0  0.21248608573099842  0.1716603701587078  0.37957283721648655  1.0000
  C   C41       1.0  0.726929564374916  0.2794094066909855  0.8324455165602922  1.0000
  C   C42       1.0  0.7730704358373865  0.7794094067265711  0.6675544831369261  1.0000
  C   C43       1.0  0.2730704353167805  0.7205905925052956  0.16755448311492507  1.0000
  C   C44       1.0  0.22692956520382562  0.22059059246970994  0.332445516907076  1.0000
  C   C45       1.0  0.8696851244514728  0.21960534543760224  0.8218670805256283  1.0000
  C   C46       1.0  0.6303148758638497  0.7196053454731879  0.678132919539825  1.0000
  C   C47       1.0  0.13031487658973942  0.7803946537586789  0.17813291951837398  1.0000
  C   C48       1.0  0.3696851239308667  0.2803946537230932  0.3218670805036271  1.0000
  C   C49       1.0  0.0039153053177272395  0.20738983271977252  0.8582967326175268  1.0000
  C   C50       1.0  0.4960846951489695  0.7073898327553582  0.6417032674303705  1.0000
  C   C51       1.0  0.9960846944769892  0.7926101673513988  0.1417032674259254  1.0000
  C   C52       1.0  0.5039153058922428  0.2926101673158131  0.35829673261363143  1.0000
  C   C53       1.0  0.993239133686119  0.25323710403325345  0.9049680381193129  1.0000
  C   C54       1.0  0.5067608666292034  0.753237104068839  0.5950319619461404  1.0000
  C   C55       1.0  0.006760867355093138  0.7467628960379177  0.09503196192468918  1.0000
  C   C56       1.0  0.49323913316551293  0.24676289600233217  0.40496803809731186  1.0000
  C   C57       1.0  0.8485847309508168  0.31381778339136823  0.9170585448728314  1.0000
  C   C58       1.0  0.6514152693645058  0.8138177834269538  0.5829414551926219  1.0000
  C   C59       1.0  0.15141526884389964  0.686182216679803  0.08294145517062076  1.0000
  C   C60       1.0  0.34858473167670656  0.18618221664421736  0.41705854485138033  1.0000
  C   C61       1.0  0.8282628763485674  0.3611743486821573  0.964574207296168  1.0000
  C   C62       1.0  0.6717371239667552  0.8611743487177429  0.5354257927692851  1.0000
  C   C63       1.0  0.17173712344614905  0.6388256513890139  0.035425792747284114  1.0000
  C   C64       1.0  0.32826287707445706  0.13882565135342836  0.46457420727471693  1.0000
  C   C65       1.0  0.6834546141234435  0.4215587543114484  0.9769491038779498  1.0000
  C   C66       1.0  0.8165453861918789  0.921558754347034  0.5230508961875034  1.0000
  C   C67       1.0  0.3165453869177687  0.5784412457597229  0.023050896166052406  1.0000
  C   C68       1.0  0.18345461360283746  0.07844124572413726  0.4769491038559487  1.0000
  C   C69       1.0  0.710414938847019  0.4532906889688061  0.027812161991995304  1.0000
  C   C70       1.0  0.7895850615222129  0.9532906890043916  0.4721878380475616  1.0000
  C   C71       1.0  0.28958506094769737  0.546709311102365  0.9721878380514569  1.0000
  C   C72       1.0  0.2104149382725036  0.04670931106677947  0.5278121619958906  1.0000
  C   C73       1.0  0.8715393885761814  0.4116248028469936  0.044784685183418  1.0000
  C   C74       1.0  0.6284606105465548  0.9116248028825793  0.4552153148555889  1.0000
  C   C75       1.0  0.1284606112185351  0.5883751972241776  0.9552153148600343  1.0000
  C   C76       1.0  0.37153938924816166  0.08837519718859199  0.5447846851878633  1.0000
  C   C77       1.0  0.5751510800978514  0.6962533876635438  0.8559804119435613  1.0000
  C   C78       1.0  0.9248489202174711  0.1962533876279582  0.6440195881218919  1.0000
  C   C79       1.0  0.424848919696865  0.3037466124076274  0.14401958809989077  1.0000
  C   C80       1.0  0.07515108082374115  0.803746612443213  0.35598041192211033  1.0000
  C   C81       1.0  0.9457940859338859  0.4731514396708238  0.7252598422888299  1.0000
  C   C82       1.0  0.5542059131349409  0.9731514397064094  0.7747401577760734  1.0000
  C   C83       1.0  0.05420591386083059  0.5268485604003474  0.27474015775462235  1.0000
  C   C84       1.0  0.4457940866597755  0.0268485603647618  0.22525984226737872  1.0000
  C   C85       1.0  0.055275294533672664  0.5743994501647289  0.9060338862327364  1.0000
  C   C86       1.0  0.44472470593302416  0.07439945012914333  0.5939661138151612  1.0000
  C   C87       1.0  0.9447247052610438  0.42560054990644225  0.09396611381071585  1.0000
  C   C88       1.0  0.5552752938616923  0.9256005499420279  0.4060338862282911  1.0000
  C   C89       1.0  0.815921830454207  0.44490150040281184  0.5585638978171165  1.0000
  C   C90       1.0  0.68407816861462  0.9449015004383974  0.941436102247787  1.0000
  C   C91       1.0  0.18407816934050958  0.5550984996683593  0.4414361022263357  1.0000
  C   C92       1.0  0.31592183118009654  0.05509849963277378  0.05856389779566528  1.0000
  C   C93       1.0  0.8713338559463325  0.5446997908136895  0.5845028620699767  1.0000
  C   C94       1.0  0.6286661443689902  0.044699790778103834  0.9154971379954765  1.0000
  C   C95       1.0  0.12866614384838398  0.4553002092574818  0.41549713797347543  1.0000
  C   C96       1.0  0.3713338554257263  0.9553002092930675  0.08450286204797569  1.0000
  C   C97       1.0  0.042125783555779575  0.5683533818721171  0.5915531155531725  1.0000
  C   C98       1.0  0.4578742169109172  0.0683533818365315  0.908446884494725  1.0000
  C   C99       1.0  0.9578742162389369  0.4316466181990541  0.40844688449027977  1.0000
  C   C100      1.0  0.5421257828837992  0.9316466182346397  0.09155311554872715  1.0000
  C   C101      1.0  0.1576197763641482  0.491856570734495  0.5731866495099422  1.0000
  C   C102      1.0  0.34238022285605274  0.9918565707700806  0.9268133505374052  1.0000
  C   C103      1.0  0.8423802234305683  0.5081434293366762  0.4268133505335099  1.0000
  C   C104      1.0  0.6576197769386637  0.008143429301090598  0.07318664950604696  1.0000
  C   C105      1.0  0.10281647091111124  0.39154497090510115  0.5474731683529913  1.0000
  C   C106      1.0  0.39718352955558556  0.8915449709406869  0.9525268316949062  1.0000
  C   C107      1.0  0.897183530130101  0.60845502916607  0.4525268316910108  1.0000
  C   C108      1.0  0.6028164702391309  0.10845502913048442  0.04747316834854604  1.0000
  C   C109      1.0  0.9316072611034897  0.3681685677900646  0.5398868644167412  1.0000
  C   C110      1.0  0.5683927379653371  0.8681685678256502  0.9601131356481621  1.0000
  C   C111      1.0  0.06839273869122678  0.6318314322811066  0.4601131356267111  1.0000
  C   C112      1.0  0.43160726182937936  0.131831432245521  0.03988686439529003  1.0000
  C   C113      1.0  0.45831441014507357  0.46316876294982046  0.7314557271951245  1.0000
  C   C114      1.0  0.041685590321623216  0.9631687621105159  0.7685442728527728  1.0000
  C   C115      1.0  0.541685589649643  0.5368312371213507  0.26854427284832766  1.0000
  C   C116      1.0  0.9583144094730932  0.036831237085765176  0.23145572719067933  1.0000
  C   C117      1.0  0.49605877393941783  0.3982985838510275  0.6849363143720371  1.0000
  C   C118      1.0  0.003941226527278894  0.8982985838866131  0.8150636856758604  1.0000
  C   C119      1.0  0.5039412258552985  0.6017014162201437  0.31506368567141513  1.0000
  C   C120      1.0  0.9960587732674374  0.10170141618455811  0.1849363143675918  1.0000
  C   C121      1.0  0.3458533017211618  0.3159864601946921  0.6772355637191192  1.0000
  C   C122      1.0  0.15414669749903917  0.8159864602302777  0.8227644363282282  1.0000
  C   C123      1.0  0.6541466980735546  0.6840135398764792  0.32276443632433294  1.0000
  C   C124      1.0  0.8458533022956772  0.18401353984089353  0.17723556371522398  1.0000
  C   C125      1.0  0.32383629948438386  0.27788251342362785  0.7298149933780225  1.0000
  C   C126      1.0  0.17616370098231293  0.7778825134592134  0.7701850066698751  1.0000
  C   C127      1.0  0.6761637003103326  0.7221174866475434  0.2701850066654298  1.0000
  C   C128      1.0  0.8238363000588994  0.22211748661195777  0.22981499337412709  1.0000
  N   N1        1.0  0.42339624580201457  0.41151581603251464  0.8627305025896297  1.0000
  N   N2        1.0  0.07660375456166216  0.9115158160681003  0.6372694970900328  1.0000
  N   N3        1.0  0.5766037538896819  0.5884841840386565  0.13726949708558753  1.0000
  N   N4        1.0  0.9233962451300343  0.08848418400307097  0.3627305025851844  1.0000
  N   N5        1.0  0.9394154947507963  0.35576721790788723  0.006131100143987914  1.0000
  N   N6        1.0  0.5605845043719396  0.8557672179434728  0.4938688998950191  1.0000
  N   N7        1.0  0.06058450504391995  0.6442327812883938  0.9938688998994644  1.0000
  N   N8        1.0  0.43941549542277686  0.14423278212769833  0.5061311001484332  1.0000
  O   O1        1.0  0.676226685200384  0.6394250963664511  0.8222932427430177  1.0000
  O   O2        1.0  0.8237733138684428  0.13942509633086547  0.6777067573218858  1.0000
  O   O3        1.0  0.3237733145943325  0.3605749037047201  0.17770675730043456  1.0000
  O   O4        1.0  0.17622668592627364  0.8605749037403058  0.32229324272156656  1.0000
  O   O5        1.0  0.8555253148662524  0.5357415946982171  0.7598492806384028  1.0000
  O   O6        1.0  0.6444746854490702  0.035741595537521646  0.7401507194270505  1.0000
  O   O7        1.0  0.144474684928464  0.46425840449806394  0.24015071940504934  1.0000
  O   O8        1.0  0.3555253155921421  0.9642584045336496  0.2598492806169517  1.0000
  O   O9        1.0  0.3723278894230595  0.3784763598112003  0.7603044575510934  1.0000
  O   O10       1.0  0.1276721110436372  0.8784763589718958  0.739695542496804  1.0000
  O   O11       1.0  0.6276721103716569  0.6215236402599709  0.2396955424923587  1.0000
  O   O12       1.0  0.8723278887510791  0.12152364022438528  0.2603044575466482  1.0000
  Cl  Cl1       1.0  0.6040479669277561  0.4174212343616027  0.5493182920677956  1.0000
  Cl  Cl2       1.0  0.8959520321410706  0.9174212343971883  0.9506817079971077  1.0000
  Cl  Cl3       1.0  0.39595203286696035  0.5825787657095686  0.4506817079756566  1.0000
  Cl  Cl4       1.0  0.10404796765364578  0.0825787656739829  0.04931829204634445  1.0000
  Cl  Cl5       1.0  0.8657996443687368  0.2449255147230873  0.5074172663304294  1.0000
  Cl  Cl6       1.0  0.6342003559465857  0.7449255147586729  0.9925827337350238  1.0000
  Cl  Cl7       1.0  0.1342003554259796  0.7550744853480839  0.49258273371302275  1.0000
  Cl  Cl8       1.0  0.3657996450946265  0.2550744853124983  0.007417266308978267  1.0000
