data_image0
_chemical_formula_structural       H44C52N4O8Cl4
_chemical_formula_sum              "H44 C52 N4 O8 Cl4"
_cell_length_a       6.428791218370397
_cell_length_b       24.416443559980216
_cell_length_c       7.892537133656199
_cell_angle_alpha    90.0
_cell_angle_beta     118.19630468726517
_cell_angle_gamma    90.0

_space_group_name_H-M_alt    "P 1"
_space_group_IT_number       1

loop_
  _space_group_symop_operation_xyz
  'x, y, z'

loop_
  _atom_site_type_symbol
  _atom_site_label
  _atom_site_symmetry_multiplicity
  _atom_site_fract_x
  _atom_site_fract_y
  _atom_site_fract_z
  _atom_site_occupancy
  H   H1        1.0  0.585795695644723  0.4378867652750269  0.6995496926904292  1.0000
  H   H2        1.0  0.4142043045652902  0.937886765275432  0.8004503078146863  1.0000
  H   H3        1.0  0.41420430460745067  0.5621132347257833  0.3004503069537263  1.0000
  H   H4        1.0  0.5857956949425263  0.06211323472537819  0.19954969325329486  1.0000
  H   H5        1.0  0.19369735071137578  0.36449080383626564  0.21159341055978154  1.0000
  H   H6        1.0  0.8063026480195655  0.8644908038366708  0.2884065882096893  1.0000
  H   H7        1.0  0.806302647977405  0.6355091961645447  0.7884065890706493  1.0000
  H   H8        1.0  0.19369735223260823  0.1355091961641395  0.7115934114344664  1.0000
  H   H9        1.0  0.08715100891264106  0.31787233513078794  0.8993638661819461  1.0000
  H   H10       1.0  0.9128489912973722  0.8178723351311931  0.6006361343231695  1.0000
  H   H11       1.0  0.9128489913395327  0.6821276648700223  0.10063613346220959  1.0000
  H   H12       1.0  0.08715100895480153  0.1821276648696172  0.399363865320986  1.0000
  H   H13       1.0  0.4004055695120164  0.2673747793761529  0.8597943444683808  1.0000
  H   H14       1.0  0.5995944298789612  0.7673747793765581  0.6402056545991844  1.0000
  H   H15       1.0  0.5995944307401574  0.7326252206246574  0.14020565517577485  1.0000
  H   H16       1.0  0.4004055688098196  0.2326252206242522  0.35979434503124635  1.0000
  H   H17       1.0  0.8117909724667958  0.26572999479066056  0.1265047205266607  1.0000
  H   H18       1.0  0.18820902708318113  0.7657299947910656  0.37349527968036045  1.0000
  H   H19       1.0  0.18820902860441355  0.7342700052101497  0.8734952805550453  1.0000
  H   H20       1.0  0.8117909716055998  0.23427000520974456  0.6265047199500704  1.0000
  H   H21       1.0  0.7239126037990434  0.3773038328603932  0.9595594285109992  1.0000
  H   H22       1.0  0.27608739641096985  0.8773038328607984  0.5404405719941167  1.0000
  H   H23       1.0  0.2760873948897375  0.6226961671404171  0.04044057111943179  1.0000
  H   H24       1.0  0.7239126046602395  0.1226961671400119  0.4595594290875894  1.0000
  H   H25       1.0  0.912271980266793  0.41043959843626465  0.3036851082358192  1.0000
  H   H26       1.0  0.08772801928318405  0.9104395984366698  0.19631489197120203  1.0000
  H   H27       1.0  0.08772801842198795  0.5895604015645456  0.6963148913946117  1.0000
  H   H28       1.0  0.9122719817880254  0.08956040156414048  0.803685109110504  1.0000
  H   H29       1.0  0.7975392277530255  0.5757838378658366  0.0822223153124224  1.0000
  H   H30       1.0  0.20246077179695154  0.07578383786543151  0.4177776848945988  1.0000
  H   H31       1.0  0.20246077093575546  0.4242161621349736  0.9177776843180084  1.0000
  H   H32       1.0  0.7975392284552222  0.9242161621353787  0.5822223147495569  1.0000
  H   H33       1.0  0.6150199257886404  0.5359118656185898  0.7489069727827653  1.0000
  H   H34       1.0  0.3849800744213729  0.03591186561818467  0.7510930277223504  1.0000
  H   H35       1.0  0.3849800737191761  0.46408813438222046  0.25109302828521596  1.0000
  H   H36       1.0  0.6150199258308009  0.9640881343826256  0.24890697192180522  1.0000
  H   H37       1.0  0.14678530964037867  0.5396282406007649  0.446805075135925  1.0000
  H   H38       1.0  0.8532146914729913  0.039628240600359736  0.053194925084821064  1.0000
  H   H39       1.0  0.8532146906117951  0.4603717594000454  0.5531949245082307  1.0000
  H   H40       1.0  0.14678530877918253  0.9603717594004505  0.9468050745593346  1.0000
  H   H41       1.0  0.8649064370714042  0.5542146331327118  0.41843669893511465  1.0000
  H   H42       1.0  0.13509356404196549  0.0542146331323067  0.08156330128563137  1.0000
  H   H43       1.0  0.13509356318076937  0.44578536686809844  0.581563300709041  1.0000
  H   H44       1.0  0.8649064362102082  0.9457853668685036  0.9184366983585242  1.0000
  C   C1        1.0  0.6022152284644848  0.3687803917012104  0.5295851610861604  1.0000
  C   C2        1.0  0.39778477174552845  0.8687803917016155  0.9704148394189553  1.0000
  C   C3        1.0  0.39778477104333165  0.6312196082995999  0.4704148399818209  1.0000
  C   C4        1.0  0.6022152285066453  0.13121960829919474  0.029585160225200347  1.0000
  C   C5        1.0  0.557333949086816  0.34179326524353004  0.34364748298766973  1.0000
  C   C6        1.0  0.4426660496441253  0.8417932652439353  0.15635251578180107  1.0000
  C   C7        1.0  0.4426660511653577  0.6582067347572801  0.6563525166564859  1.0000
  C   C8        1.0  0.5573339490446556  0.15820673475687505  0.8436474838486298  1.0000
  C   C9        1.0  0.3270220024122627  0.3427744851309042  0.18967872796918256  1.0000
  C   C10       1.0  0.6729779971377142  0.8427744851313094  0.3103212722378387  1.0000
  C   C11       1.0  0.6729779962765182  0.657225514869906  0.8103212716612483  1.0000
  C   C12       1.0  0.32702200311445945  0.15722551486950093  0.6896787274063169  1.0000
  C   C13       1.0  0.2680306892599833  0.3164023819039049  0.016236514441382143  1.0000
  C   C14       1.0  0.7319693102899936  0.81640238190431  0.48376348576563905  1.0000
  C   C15       1.0  0.7319693109921905  0.6835976180969054  0.9837634852027736  1.0000
  C   C16       1.0  0.2680306899621801  0.18359761809650021  0.5162365138785165  1.0000
  C   C17       1.0  0.44314060669506605  0.2884672451455787  0.9938410731260494  1.0000
  C   C18       1.0  0.5568593926959117  0.7884672451459839  0.5061589259415159  1.0000
  C   C19       1.0  0.556859391993715  0.7115327548552316  0.0061589265043815134  1.0000
  C   C20       1.0  0.44314060755626206  0.2115327548548264  0.4938410737026397  1.0000
  C   C21       1.0  0.674424834177405  0.28726276669941375  0.14314444534828744  1.0000
  C   C22       1.0  0.32557516611692927  0.7872627666998189  0.35685555343490816  1.0000
  C   C23       1.0  0.3255751660747687  0.7127372333013966  0.8568555542958681  1.0000
  C   C24       1.0  0.6744248341352443  0.21273723330099137  0.6431444462092474  1.0000
  C   C25       1.0  0.7300296366825937  0.3138472284538645  0.3161010233332856  1.0000
  C   C26       1.0  0.2699703628673833  0.8138472284542696  0.18389897687373555  1.0000
  C   C27       1.0  0.2699703620061872  0.6861527715469458  0.6838989762971452  1.0000
  C   C28       1.0  0.7300296373847904  0.1861527715465406  0.81610102277042  1.0000
  C   C29       1.0  0.7441283169103474  0.42047723431873624  0.9990321958743987  1.0000
  C   C30       1.0  0.2558716832996659  0.9204772343191414  0.5009678046307169  1.0000
  C   C31       1.0  0.25587168416086203  0.5795227656820741  0.0009678052073072917  1.0000
  C   C32       1.0  0.7441283169525078  0.07952276568166888  0.4990321950134387  1.0000
  C   C33       1.0  0.8478609633925578  0.4397574934950395  0.18635411901159318  1.0000
  C   C34       1.0  0.15213903615741908  0.9397574934954446  0.3136458811954279  1.0000
  C   C35       1.0  0.15213903529622302  0.5602425065057707  0.8136458806188377  1.0000
  C   C36       1.0  0.8478609640947548  0.06024250650536559  0.6863541184487276  1.0000
  C   C37       1.0  0.8692266017134674  0.49624091486687494  0.2213412075990204  1.0000
  C   C38       1.0  0.13077339701747384  0.9962409148672801  0.27865879117045034  1.0000
  C   C39       1.0  0.1307733985387063  0.5037590851339353  0.7786587920451352  1.0000
  C   C40       1.0  0.8692266016713069  0.003759085133530166  0.7213412084599804  1.0000
  C   C41       1.0  0.7843646768791448  0.531541060765793  0.06208198092276863  1.0000
  C   C42       1.0  0.21563532185179657  0.0315410607653879  0.43791801784670215  1.0000
  C   C43       1.0  0.21563532337302888  0.46845893923501725  0.9379180187213869  1.0000
  C   C44       1.0  0.7843646784003772  0.9684589392354224  0.5620819817974535  1.0000
  C   C45       1.0  0.6824132774116649  0.5102715987033001  0.877861097950754  1.0000
  C   C46       1.0  0.3175867243617411  0.010271598702894928  0.6221389025680866  1.0000
  C   C47       1.0  0.31758672284050876  0.4897284012975102  0.12213890169340173  1.0000
  C   C48       1.0  0.6824132758904325  0.9897284012979154  0.377861097076069  1.0000
  C   C49       1.0  0.9786549434370108  0.5202300727702823  0.4198270516554171  1.0000
  C   C50       1.0  0.021345056112966204  0.02023007276987723  0.08017294855160413  1.0000
  C   C51       1.0  0.02134505681516306  0.47976992723052786  0.5801729479887386  1.0000
  C   C52       1.0  0.9786549441392075  0.979769927230933  0.9198270510925515  1.0000
  N   N1        1.0  0.6640698306158097  0.45558973618224247  0.850550902490454  1.0000
  N   N2        1.0  0.3359301695942036  0.9555897361826475  0.6494490980146617  1.0000
  N   N3        1.0  0.3359301704553998  0.5444102638185678  0.14944909859125208  1.0000
  N   N4        1.0  0.6640698290945772  0.04441026381816266  0.35055090161576913  1.0000
  O   O1        1.0  0.5011835254248044  0.41635253738027345  0.5108824870695317  1.0000
  O   O2        1.0  0.498816474785209  0.9163525373806786  0.9891175134355841  1.0000
  O   O3        1.0  0.49881647326397655  0.5836474626205368  0.48911751256089914  1.0000
  O   O4        1.0  0.5011835254669649  0.08364746262013169  0.010882486208571601  1.0000
  O   O5        1.0  0.7249269557363598  0.34524470073998076  0.6860513370852769  1.0000
  O   O6        1.0  0.27507304447365344  0.8452447007403858  0.8139486634198387  1.0000
  O   O7        1.0  0.2750730453348496  0.6547552992608295  0.3139486639964291  1.0000
  O   O8        1.0  0.7249269542151274  0.1547552992604244  0.18605133621059206  1.0000
  Cl  Cl1       1.0  0.02502724551235762  0.31423227060698994  0.49209671567285573  1.0000
  Cl  Cl2       1.0  0.9749727540376194  0.8142322706073951  0.007903284534165514  1.0000
  Cl  Cl3       1.0  0.974972754739816  0.6857677293938204  0.5079032839712999  1.0000
  Cl  Cl4       1.0  0.02502724465116147  0.1857677293934152  0.9920967150962653  1.0000
