data_image0
_chemical_formula_structural       H80C96N8O20
_chemical_formula_sum              "H80 C96 N8 O20"
_cell_length_a       12.296597575725444
_cell_length_b       12.676281678919276
_cell_length_c       13.384115973766532
_cell_angle_alpha    89.99998771185051
_cell_angle_beta     112.14342894775096
_cell_angle_gamma    89.99999975257747

_space_group_name_H-M_alt    "P 1"
_space_group_IT_number       1

loop_
  _space_group_symop_operation_xyz
  'x, y, z'

loop_
  _atom_site_type_symbol
  _atom_site_label
  _atom_site_symmetry_multiplicity
  _atom_site_fract_x
  _atom_site_fract_y
  _atom_site_fract_z
  _atom_site_occupancy
  H   H1        1.0  0.8808460443637919  0.21919245823374817  0.5348768890628163  1.0000
  H   H2        1.0  0.6191609874884999  0.7191933577800205  0.9651202089987876  1.0000
  H   H3        1.0  0.11915395842291582  0.780807550912498  0.4651231148606771  1.0000
  H   H4        1.0  0.3808460440400156  0.28080750256249243  0.0348768567423274  1.0000
  H   H5        1.0  0.6522370843718712  0.24869612790236661  0.7714317231720544  1.0000
  H   H6        1.0  0.8477633973797278  0.7486963502339112  0.7285672908375443  1.0000
  H   H7        1.0  0.34776292450240137  0.7513038796661303  0.2285682753534904  1.0000
  H   H8        1.0  0.15223710837171225  0.2513039239743926  0.27143174349358656  1.0000
  H   H9        1.0  0.9927876336856717  0.46828647736161194  0.9359824211340463  1.0000
  H   H10       1.0  0.5072122938206997  0.9682865728865034  0.5640176837770017  1.0000
  H   H11       1.0  0.007212387486026116  0.5317135333623838  0.0640175823278473  1.0000
  H   H12       1.0  0.49278765995240625  0.03171352619146508  0.4359824356989813  1.0000
  H   H13       1.0  0.5845275607865468  0.13150149650059623  0.6137669733187229  1.0000
  H   H14       1.0  0.9154761037535207  0.6314998513927724  0.8862314364887638  1.0000
  H   H15       1.0  0.4154724445583684  0.8684985134345254  0.38623302176301666  1.0000
  H   H16       1.0  0.0845276162018861  0.36849852083828233  0.11376699669930543  1.0000
  H   H17       1.0  0.7014578506532105  0.11314319850440732  0.4974883479826254  1.0000
  H   H18       1.0  0.7985447055981392  0.6131415258393326  0.0025126118946269234  1.0000
  H   H19       1.0  0.2985421512089366  0.8868568090640896  0.502511649648546  1.0000
  H   H20       1.0  0.20145780970010455  0.38685681641421016  0.9974883293700295  1.0000
  H   H21       1.0  0.10129830777146191  0.4569520295808219  0.8155186045463241  1.0000
  H   H22       1.0  0.3987025410298425  0.9569512717828248  0.6844820334313518  1.0000
  H   H23       1.0  0.8987017038531978  0.5430479811431728  0.1844814098595683  1.0000
  H   H24       1.0  0.6012982660179984  0.04304796032160836  0.31551858741909733  1.0000
  H   H25       1.0  0.7782539868264191  0.4098832516142906  0.08150230939164833  1.0000
  H   H26       1.0  0.7217459594010119  0.9098832673563809  0.4184977059752019  1.0000
  H   H27       1.0  0.2217459665506849  0.5901167480654502  0.9184977591418342  1.0000
  H   H28       1.0  0.27825401347642525  0.09011675046749074  0.5815022802878433  1.0000
  H   H29       1.0  0.2073483821680321  0.38392701396985685  0.6277912656753308  1.0000
  H   H30       1.0  0.2926515857582258  0.8839268095663805  0.8722089031470824  1.0000
  H   H31       1.0  0.7926516188219668  0.6160729983318893  0.37220873240590935  1.0000
  H   H32       1.0  0.7073484872196187  0.1160732003687382  0.12779111870999982  1.0000
  H   H33       1.0  0.40386975976769746  0.4765963794358269  0.2713982208993165  1.0000
  H   H34       1.0  0.09613022888722314  0.9765963697489982  0.22860177326169412  1.0000
  H   H35       1.0  0.596130250810106  0.5234036186661724  0.7286017714820088  1.0000
  H   H36       1.0  0.9038697826442584  0.023403638608373013  0.771398229157725  1.0000
  H   H37       1.0  0.5282127625255016  0.32167737983544054  0.5393988182371675  1.0000
  H   H38       1.0  0.9717872125561001  0.8216774133443493  0.9606011605961972  1.0000
  H   H39       1.0  0.4717872463487708  0.6783226277330564  0.4606011802883773  1.0000
  H   H40       1.0  0.028212799795116806  0.17832259501302278  0.03939883463076123  1.0000
  H   H41       1.0  0.7663022261923939  0.3056132163209965  0.3782064223070157  1.0000
  H   H42       1.0  0.7336977694815374  0.8056132143999668  0.12179356698981761  1.0000
  H   H43       1.0  0.23369777827454985  0.6943867944030003  0.6217935724756385  1.0000
  H   H44       1.0  0.26630219811060024  0.19438678843528287  0.8782064152312539  1.0000
  H   H45       1.0  0.6030882045672417  0.33691158876399113  0.4248197209583355  1.0000
  H   H46       1.0  0.8969118232710146  0.8369116073254437  0.07518029582715265  1.0000
  H   H47       1.0  0.3969118025569114  0.6630884164378812  0.5751802777181936  1.0000
  H   H48       1.0  0.10308818132404841  0.16308840892067528  0.9248197154369019  1.0000
  H   H49       1.0  0.8665687903361803  0.31860075288803863  0.24927867086796957  1.0000
  H   H50       1.0  0.6334311698541696  0.8186007814429674  0.25072131106149775  1.0000
  H   H51       1.0  0.13343121945100564  0.681399253102708  0.7507213324515883  1.0000
  H   H52       1.0  0.366568831100888  0.1813992245477803  0.7492786825248157  1.0000
  H   H53       1.0  0.23969377970874856  0.5040405803775694  0.320656789621818  1.0000
  H   H54       1.0  0.26030620014740635  0.00404057429892985  0.1793431963018861  1.0000
  H   H55       1.0  0.7603062318110855  0.49595943350192623  0.6793432112992911  1.0000
  H   H56       1.0  0.7396938061337167  0.9959594332695667  0.8206568065704849  1.0000
  H   H57       1.0  0.41859301185668335  0.30932640146560436  0.6607230544003927  1.0000
  H   H58       1.0  0.08140701302018741  0.8093264025678024  0.8392769643283241  1.0000
  H   H59       1.0  0.5814069943720269  0.6906736084695173  0.33927694172958667  1.0000
  H   H60       1.0  0.9185929862546341  0.19067360263406957  0.16072303839882845  1.0000
  H   H61       1.0  0.13968142474236284  0.4818678374518942  0.45181046059897434  1.0000
  H   H62       1.0  0.3603186301161956  0.9818677983131667  0.04818955574504371  1.0000
  H   H63       1.0  0.8603185824167318  0.5181321732721017  0.5481895425724816  1.0000
  H   H64       1.0  0.639681379665167  0.018132201366581085  0.9518104468253604  1.0000
  H   H65       1.0  0.4848800933016375  0.49742356017095335  0.15943566662731487  1.0000
  H   H66       1.0  0.015119961777985427  0.9974235308291118  0.34056434948520653  1.0000
  H   H67       1.0  0.5151199103339239  0.5025764410865444  0.8405643338494917  1.0000
  H   H68       1.0  0.9848800471195814  0.002576478317134409  0.6594356520369564  1.0000
  H   H69       1.0  0.5990061128649237  0.5044283468415867  0.039294115771003495  1.0000
  H   H70       1.0  0.9009938529088869  0.004428343019290382  0.4607058800745706  1.0000
  H   H71       1.0  0.400993882997013  0.49557166467128294  0.9607058984954352  1.0000
  H   H72       1.0  0.09900614987199713  0.9955716661269558  0.5392941230997682  1.0000
  H   H73       1.0  0.5077138998063517  0.2303472720284113  0.9266750557498448  1.0000
  H   H74       1.0  0.9922860923660386  0.7303472909159878  0.5733249534840932  1.0000
  H   H75       1.0  0.4922862526941982  0.7696526542859735  0.07332494537811776  1.0000
  H   H76       1.0  0.0077139077285179  0.269652719808009  0.42667504205059803  1.0000
  H   H77       1.0  0.5623827510551311  0.32017479977380514  0.8777724037306143  1.0000
  H   H78       1.0  0.9376172586158759  0.8201748093177039  0.6222276126079312  1.0000
  H   H79       1.0  0.4376172359455586  0.6798252156834405  0.12222759705680641  1.0000
  H   H80       1.0  0.062382743351097183  0.1798251864176687  0.3777723985080245  1.0000
  C   C1        1.0  0.8310436266853662  0.22604933265439361  0.5866144317226843  1.0000
  C   C2        1.0  0.6689643597283615  0.7260529725001194  0.9133870471992099  1.0000
  C   C3        1.0  0.168956376078047  0.7739506749141031  0.4133855692041908  1.0000
  C   C4        1.0  0.3310436333864005  0.27395070649180325  0.08661442790448938  1.0000
  C   C5        1.0  0.9782044821806657  0.35529704618247043  0.7016651073525765  1.0000
  C   C6        1.0  0.5217969306514152  0.8552958868231328  0.7983358517510474  1.0000
  C   C7        1.0  0.02179552235033775  0.6447029621749009  0.2983348956707784  1.0000
  C   C8        1.0  0.47820448500685114  0.14470297766557316  0.20166511166347242  1.0000
  C   C9        1.0  0.8720439544049681  0.29595217932711365  0.6759434333461347  1.0000
  C   C10       1.0  0.6279604269064808  0.7959549380658522  0.8240559919908764  1.0000
  C   C11       1.0  0.12795604834679786  0.7040478298191328  0.324056566082431  1.0000
  C   C12       1.0  0.37204397071277  0.2040478400312124  0.17594344387362337  1.0000
  C   C13       1.0  0.8068487398709983  0.30354663092023504  0.7457470423185083  1.0000
  C   C14       1.0  0.6931522798771033  0.8035470163145986  0.7542519214324084  1.0000
  C   C15       1.0  0.19315126285747303  0.6964533790148868  0.254252954113439  1.0000
  C   C16       1.0  0.3068487305887216  0.19645336596956692  0.24574704424315916  1.0000
  C   C17       1.0  0.8508727877794936  0.36901405101575735  0.8397833284778281  1.0000
  C   C18       1.0  0.6491274432260705  0.8690140099563464  0.660217278921021  1.0000
  C   C19       1.0  0.14912722017021854  0.630985951819491  0.1602166637553952  1.0000
  C   C20       1.0  0.3508727999338314  0.13098592976884296  0.33978334559689854  1.0000
  C   C21       1.0  0.7028567939956208  0.24272662245875143  0.7203090182707994  1.0000
  C   C22       1.0  0.7971444100419278  0.7427262227603393  0.7796908056733333  1.0000
  C   C23       1.0  0.29714321225056034  0.7572733866874952  0.27969098010664395  1.0000
  C   C24       1.0  0.20285678825556996  0.2572733572379955  0.2203090055287054  1.0000
  C   C25       1.0  0.9573012599993637  0.41986593619005963  0.8641022089463444  1.0000
  C   C26       1.0  0.5426989050953425  0.919865801984528  0.6358979968714875  1.0000
  C   C27       1.0  0.04269875856753833  0.5801340650674375  0.13589779736406735  1.0000
  C   C28       1.0  0.45730126746158223  0.08013406989746776  0.364102218802252  1.0000
  C   C29       1.0  0.6653671642983257  0.17632210827855466  0.6322258271674177  1.0000
  C   C30       1.0  0.8346367854026358  0.6763212212922524  0.8677727726485759  1.0000
  C   C31       1.0  0.3346328401919128  0.8236778977121927  0.3677741706118553  1.0000
  C   C32       1.0  0.1653671976718942  0.32367785619291245  0.13222582787799628  1.0000
  C   C33       1.0  0.046251149261137485  0.3612407388805775  0.6296411959811171  1.0000
  C   C34       1.0  0.4537495991101579  0.8612401973556868  0.8703591680456102  1.0000
  C   C35       1.0  0.9537488508450666  0.6387592686879197  0.3703588010518836  1.0000
  C   C36       1.0  0.54625116672845  0.13875927851110514  0.1296412205928265  1.0000
  C   C37       1.0  0.7305365222005756  0.16726721230368088  0.5655878756785032  1.0000
  C   C38       1.0  0.7694722690594659  0.6672670648004647  0.9344146788839615  1.0000
  C   C39       1.0  0.26946348141169113  0.8327327928981915  0.4344121218016846  1.0000
  C   C40       1.0  0.23053653792744178  0.3327328110256136  0.06558786098764938  1.0000
  C   C41       1.0  0.7850660751660745  0.3901885404986598  0.9128781438618864  1.0000
  C   C42       1.0  0.7149338836195978  0.8901886109716405  0.5871216184001651  1.0000
  C   C43       1.0  0.21493394509853433  0.6098114583922134  0.08712185555515035  1.0000
  C   C44       1.0  0.28506605867162976  0.10981145339587191  0.412878150477235  1.0000
  C   C45       1.0  0.019697099742768783  0.41373735732397715  0.795836515719139  1.0000
  C   C46       1.0  0.4803037232201127  0.9137360107397159  0.7041644199856165  1.0000
  C   C47       1.0  0.9803029144517456  0.5862626534000183  0.20416349134330877  1.0000
  C   C48       1.0  0.51969706868513  0.08626268177427641  0.2958365057823512  1.0000
  C   C49       1.0  0.45099837264329407  0.42791744220905115  0.34210487027697023  1.0000
  C   C50       1.0  0.049001646290596675  0.9279174427960594  0.15789513703966143  1.0000
  C   C51       1.0  0.5490016494121984  0.5720825819258171  0.6578951342331616  1.0000
  C   C52       1.0  0.9509983661130327  0.07208256871681158  0.842104864929688  1.0000
  C   C53       1.0  0.4423936894666021  0.3585879873572291  0.5154822157163473  1.0000
  C   C54       1.0  0.05760630593343725  0.8585879728850658  0.9845177877650549  1.0000
  C   C55       1.0  0.5576063194426121  0.6414120194223925  0.48451778730412515  1.0000
  C   C56       1.0  0.9423937055747496  0.14141204178330477  0.015482211657745088  1.0000
  C   C57       1.0  0.3929382954040289  0.4144660062410514  0.4180764991420889  1.0000
  C   C58       1.0  0.10706170029987437  0.9144659896804938  0.08192350385799771  1.0000
  C   C59       1.0  0.607061715173774  0.5855339989608215  0.5819234932392355  1.0000
  C   C60       1.0  0.8929383042136583  0.0855340194657526  0.9180764969178933  1.0000
  C   C61       1.0  0.7251265317681156  0.3496510169292928  0.30368411879580615  1.0000
  C   C62       1.0  0.7748734622101209  0.8496509866039017  0.1963158710543503  1.0000
  C   C63       1.0  0.27487347443730026  0.6503489930058292  0.6963158743375549  1.0000
  C   C64       1.0  0.22512653958796686  0.150349010709223  0.8036841183361219  1.0000
  C   C65       1.0  0.6150274940101746  0.3978900964553966  0.2792440547476269  1.0000
  C   C66       1.0  0.8849725216324726  0.8978901142506328  0.22075595243675655  1.0000
  C   C67       1.0  0.38497252200434184  0.6021099339904695  0.7207559611536897  1.0000
  C   C68       1.0  0.11502748030538144  0.10210989568448786  0.7792440549334244  1.0000
  C   C69       1.0  0.5560791128562084  0.38538299193172276  0.35424629951432307  1.0000
  C   C70       1.0  0.9439208882182817  0.8853829978827564  0.14575370311546965  1.0000
  C   C71       1.0  0.4439209119030823  0.614617034569769  0.6457537148829195  1.0000
  C   C72       1.0  0.05607911460336769  0.11461701441898854  0.854246305302951  1.0000
  C   C73       1.0  0.7819853628000327  0.356654090629607  0.23246138543761338  1.0000
  C   C74       1.0  0.7180146366632914  0.8566540737397932  0.2675386100276553  1.0000
  C   C75       1.0  0.21801464694638817  0.6433459082612664  0.7675386126378633  1.0000
  C   C76       1.0  0.2819853748507194  0.14334593303982848  0.7324613901443001  1.0000
  C   C77       1.0  0.2818959665321493  0.46005742909044667  0.3949991893755637  1.0000
  C   C78       1.0  0.21810404994386837  0.9600574412162768  0.10500079535149759  1.0000
  C   C79       1.0  0.7181040379464418  0.5399425713781767  0.6050008069054006  1.0000
  C   C80       1.0  0.78189595454637  0.039942566352220224  0.8949992024277752  1.0000
  C   C81       1.0  0.38125888680997827  0.3503386179532186  0.5835409929922011  1.0000
  C   C82       1.0  0.11874111550394165  0.8503386082519648  0.9164590071203723  1.0000
  C   C83       1.0  0.618741123820237  0.6496613951374022  0.4164590061315137  1.0000
  C   C84       1.0  0.8812588933412125  0.14966139931653238  0.0835409876593996  1.0000
  C   C85       1.0  0.22592236577845579  0.447974700902443  0.4669961669277031  1.0000
  C   C86       1.0  0.2740776783110611  0.9479747250130078  0.03300383798463937  1.0000
  C   C87       1.0  0.7740776369733101  0.5520253058771789  0.5330038325008629  1.0000
  C   C88       1.0  0.7259223349414217  0.052025285710988564  0.9669961605380224  1.0000
  C   C89       1.0  0.5682413224538815  0.4559719737042833  0.182150757022504  1.0000
  C   C90       1.0  0.9317587075525677  0.9559719904822984  0.3178492412559715  1.0000
  C   C91       1.0  0.43175869438619413  0.5440280512194594  0.8178492524355072  1.0000
  C   C92       1.0  0.0682412978389363  0.04402802103057254  0.6821507598190047  1.0000
  C   C93       1.0  0.6296894734520255  0.46064529044797276  0.11467476942226329  1.0000
  C   C94       1.0  0.8703105472658301  0.9606452994290943  0.38532521947176895  1.0000
  C   C95       1.0  0.37031053987616425  0.5393547273758963  0.8853252388394076  1.0000
  C   C96       1.0  0.12968946163173678  0.03935470971715209  0.614674782050394  1.0000
  N   N1        1.0  0.7331447500177427  0.41024155880914787  0.13933265906822506  1.0000
  N   N2        1.0  0.7668552623988071  0.9102415441117809  0.3606673145136841  1.0000
  N   N3        1.0  0.26685526228688555  0.5897584424483511  0.8606673301654975  1.0000
  N   N4        1.0  0.23314476129033346  0.08975846030121741  0.6393326748623742  1.0000
  N   N5        1.0  0.27455007634550044  0.39372412429381554  0.5595753972857411  1.0000
  N   N6        1.0  0.2254499618404226  0.8937241305032323  0.9404245841876175  1.0000
  N   N7        1.0  0.7254499316857419  0.6062758887968049  0.4404246054356452  1.0000
  N   N8        1.0  0.7745500556155621  0.10627587943189154  0.059575391857523766  1.0000
  O   O1        1.0  0.9980975558580063  0.35568542236812273  0.5295735131498348  1.0000
  O   O2        1.0  0.5019026474981867  0.8556851858462589  0.9704266356155115  1.0000
  O   O3        1.0  0.0019024522140016487  0.6443145859892481  0.4704264948156345  1.0000
  O   O4        1.0  0.4980975366573323  0.14431460162613544  0.029573495096035622  1.0000
  O   O5        1.0  0.8484438025657193  0.4003547168859096  0.013386834134628591  1.0000
  O   O6        1.0  0.6515562084141076  0.9003547563265084  0.4866129423049593  1.0000
  O   O7        1.0  0.1515562148844414  0.5996453001490882  0.9866131411613573  1.0000
  O   O8        1.0  0.34844380507434947  0.09964528989687804  0.5133868612865184  1.0000
  O   O9        1.0  0.15945691482139074  0.3769134192269341  0.6824514330434487  1.0000
  O   O10       1.0  0.3405435819125389  0.8769133524889264  0.8175486364695065  1.0000
  O   O11       1.0  0.8405430975997098  0.6230865859749376  0.3175485711733653  1.0000
  O   O12       1.0  0.6594569272061341  0.12308660301382364  0.1824513942401629  1.0000
  O   O13       1.0  0.6746737684920142  0.40106233191658086  0.8718077065883706  1.0000
  O   O14       1.0  0.8253262398093094  0.9010623372393022  0.6281922547889962  1.0000
  O   O15       1.0  0.3253262343471055  0.5989376914294121  0.12819230407751245  1.0000
  O   O16       1.0  0.17467376452951186  0.09893772318381287  0.3718077235122506  1.0000
  O   O17       1.0  0.4900219037706947  0.27954293136033276  0.8656602226530044  1.0000
  O   O18       1.0  0.00997814952156051  0.7795429105996656  0.6343398083293394  1.0000
  O   O19       1.0  0.5099780731136363  0.720457109340903  0.13433982848452025  1.0000
  O   O20       1.0  0.9900218680800142  0.22045711037970422  0.36566018644466547  1.0000
