data_image0
_chemical_formula_structural       H22C28N8O8F6
_chemical_formula_sum              "H22 C28 N8 O8 F6"
_cell_length_a       4.682416933881938
_cell_length_b       12.283702588495602
_cell_length_c       13.237392087610283
_cell_angle_alpha    77.36673597992186
_cell_angle_beta     82.04623552335964
_cell_angle_gamma    84.25579642473353

_space_group_name_H-M_alt    "P 1"
_space_group_IT_number       1

loop_
  _space_group_symop_operation_xyz
  'x, y, z'

loop_
  _atom_site_type_symbol
  _atom_site_label
  _atom_site_symmetry_multiplicity
  _atom_site_fract_x
  _atom_site_fract_y
  _atom_site_fract_z
  _atom_site_occupancy
  H   H1        1.0  0.2651013851275504  0.2399119442779997  0.22541396628960117  1.0000
  H   H2        1.0  0.7348986135585232  0.7600880560072731  0.774586033941639  1.0000
  H   H3        1.0  0.128885388820948  0.1500253291706171  0.017463507283474445  1.0000
  H   H4        1.0  0.8711146120198754  0.8499746711223387  0.9825364928328415  1.0000
  H   H5        1.0  0.24495147325263655  0.17850950453715592  0.8798757650268201  1.0000
  H   H6        1.0  0.755048527588187  0.8214904957557999  0.12012423508949592  1.0000
  H   H7        1.0  0.9606250233283119  0.0896983978804647  0.9309990479989454  1.0000
  H   H8        1.0  0.03937497749150951  0.9103016024051674  0.06900095136451886  1.0000
  H   H9        1.0  0.6154584386587634  0.45069918105656426  0.6522498089789567  1.0000
  H   H10       1.0  0.38454156218206015  0.5493008192363915  0.34775019113735944  1.0000
  H   H11       1.0  0.8840960026764477  0.5229100586401749  0.688981222194022  1.0000
  H   H12       1.0  0.11590399616482305  0.47708994080137046  0.31101877745203405  1.0000
  H   H13       1.0  0.5067863601271294  0.5662941329553751  0.713563709463452  1.0000
  H   H14       1.0  0.493213640713694  0.4337058673375806  0.28643629065286397  1.0000
  H   H15       1.0  0.06151462375487218  0.4076081908669782  0.09499678988932152  1.0000
  H   H16       1.0  0.9384853770649492  0.5923918094186539  0.9050032094741427  1.0000
  H   H17       1.0  0.5872931097033655  0.7392842067870317  0.33298026359423216  1.0000
  H   H18       1.0  0.4127068889617058  0.2607157934909173  0.6670197358841562  1.0000
  H   H19       1.0  0.7125242491220859  0.9250288505086621  0.5037571439077636  1.0000
  H   H20       1.0  0.28747575189493707  0.07497114894789014  0.49624285637622007  1.0000
  H   H21       1.0  0.777938984188805  0.11743022097931372  0.16656609653908058  1.0000
  H   H22       1.0  0.22206101663101618  0.8825697793063184  0.8334339028243835  1.0000
  C   C1        1.0  0.3574770780835063  0.2678690642607328  0.14517016449357312  1.0000
  C   C2        1.0  0.6425229227573173  0.7321309360322229  0.8548298356227428  1.0000
  C   C3        1.0  0.6385507585636734  0.2796692259476702  0.0009981810727102767  1.0000
  C   C4        1.0  0.3614492422771502  0.7203307743452856  0.9990018190436059  1.0000
  C   C5        1.0  0.8636487506691797  0.3342279698724735  0.8269498305912591  1.0000
  C   C6        1.0  0.13635125017164393  0.6657720304204822  0.17305016952505686  1.0000
  C   C7        1.0  0.4125505388807262  0.4421385739785476  0.8874158277835782  1.0000
  C   C8        1.0  0.5874494599605447  0.5578614254629978  0.1125841718624779  1.0000
  C   C9        1.0  0.42365225473848844  0.3663013196852336  0.9849065257425051  1.0000
  C   C10       1.0  0.576347743947585  0.6336986806000391  0.01509347448873505  1.0000
  C   C11       1.0  0.059985914121475005  0.16373531659222407  0.9397270316456505  1.0000
  C   C12       1.0  0.9400140868745458  0.8362646828570043  0.06027296788548137  1.0000
  C   C13       1.0  0.6647843222213897  0.49532931149829834  0.7101660192022232  1.0000
  C   C14       1.0  0.3352156787956334  0.5046706879582536  0.28983398108176045  1.0000
  C   C15       1.0  0.8240361421372674  0.02324109327935156  0.30330419581292445  1.0000
  C   C16       1.0  0.17596385870355616  0.976758907013604  0.6966958043033915  1.0000
  C   C17       1.0  0.9971765385819835  0.9259828287314135  0.3595961271809934  1.0000
  C   C18       1.0  0.002823462435039576  0.07401717072513882  0.6404038731029902  1.0000
  C   C19       1.0  0.2434402691317321  0.870847788922617  0.31507273203943653  1.0000
  C   C20       1.0  0.7565597317090915  0.1291522113703388  0.6849272680768793  1.0000
  C   C21       1.0  0.3943893687245142  0.7789635865437645  0.3701672382738811  1.0000
  C   C22       1.0  0.605610632095307  0.22103641374186767  0.6298327610895831  1.0000
  C   C23       1.0  0.2928948317934172  0.7402356158046127  0.4737176991634957  1.0000
  C   C24       1.0  0.7071051670688558  0.25976438364425625  0.5262823012354123  1.0000
  C   C25       1.0  0.9031859760836906  0.8848342070476516  0.4656317327863008  1.0000
  C   C26       1.0  0.09681402260238316  0.11516579323762102  0.5343682674449395  1.0000
  C   C27       1.0  0.04957824892001719  0.7930741436781203  0.5213395357639813  1.0000
  C   C28       1.0  0.950421751899804  0.20692585660751175  0.47866046359948283  1.0000
  N   N1        1.0  0.596874551938897  0.21875451600792595  0.10041278172388307  1.0000
  N   N2        1.0  0.4031254469023736  0.7812454834336194  0.8995872179221731  1.0000
  N   N3        1.0  0.853929827820097  0.2618161834374995  0.9242319613732619  1.0000
  N   N4        1.0  0.14607017302072678  0.7381838168554563  0.07576803874305399  1.0000
  N   N5        1.0  0.6450959586944551  0.4214177217333191  0.8135052122326525  1.0000
  N   N6        1.0  0.35490404214636845  0.5785822785596366  0.1864947878836634  1.0000
  N   N7        1.0  0.24612779647316366  0.35601029369859133  0.0786308229221927  1.0000
  N   N8        1.0  0.7538722045228571  0.6439897057506371  0.9213691766089391  1.0000
  O   O1        1.0  0.05481797459411875  0.32340634355853554  0.7551513445508008  1.0000
  O   O2        1.0  0.9451820262257026  0.6765936567270964  0.24484865481266332  1.0000
  O   O3        1.0  0.22540537317551043  0.5205710364117359  0.8645695167983143  1.0000
  O   O4        1.0  0.7745946256657604  0.47942896302980953  0.13543048284774192  1.0000
  O   O5        1.0  0.9135122827188508  0.05268761388743516  0.20178482525672992  1.0000
  O   O6        1.0  0.08648771829817237  0.947312385569117  0.7982151750272538  1.0000
  O   O7        1.0  0.6142156048443667  0.07044838969249222  0.3476681702335508  1.0000
  O   O8        1.0  0.38578439599645686  0.9295516106004638  0.6523318298827651  1.0000
  F   F1        1.0  0.3507562969728947  0.905110688512337  0.2130669388391503  1.0000
  F   F2        1.0  0.6492437017131788  0.09488931177293576  0.7869330613920898  1.0000
  F   F3        1.0  0.43196525521546425  0.6496862176675064  0.5297583458146438  1.0000
  F   F4        1.0  0.5680347434706093  0.3503137826177663  0.4702416544165964  1.0000
  F   F5        1.0  0.9596391261197926  0.7514066811588023  0.6236521200842243  1.0000
  F   F6        1.0  0.0403608725662809  0.24859331912647048  0.376347880147016  1.0000
