data_image0
_chemical_formula_structural       H40C12N8O32P8S4
_chemical_formula_sum              "H40 C12 N8 O32 P8 S4"
_cell_length_a       11.005381197242253
_cell_length_b       7.007654351728256
_cell_length_c       13.338088159652944
_cell_angle_alpha    90.0
_cell_angle_beta     96.74961848690731
_cell_angle_gamma    90.0

_space_group_name_H-M_alt    "P 1"
_space_group_IT_number       1

loop_
  _space_group_symop_operation_xyz
  'x, y, z'

loop_
  _atom_site_type_symbol
  _atom_site_label
  _atom_site_symmetry_multiplicity
  _atom_site_fract_x
  _atom_site_fract_y
  _atom_site_fract_z
  _atom_site_occupancy
  H   H1        1.0  0.4231582365168171  0.17769260404416232  0.9519367080483118  1.0000
  H   H2        1.0  0.0768417629026043  0.6776926032073447  0.5480632921107363  1.0000
  H   H3        1.0  0.576841763241571  0.8223073971362246  0.04806329215873865  1.0000
  H   H4        1.0  0.9231582368557838  0.32230739654603113  0.45193670809631414  1.0000
  H   H5        1.0  0.8768841484380762  0.12249893286878376  0.986023399216496  1.0000
  H   H6        1.0  0.623115851654006  0.6224989334589772  0.5139766010953366  1.0000
  H   H7        1.0  0.12311585132031214  0.8775010668845922  0.01397660099055458  1.0000
  H   H8        1.0  0.37688414901338163  0.37750106629439867  0.48602339911422754  1.0000
  H   H9        1.0  0.8962103712613674  0.3385064403775814  0.05284416742901326  1.0000
  H   H10       1.0  0.6037896287314742  0.8385064409677749  0.4471558320710786  1.0000
  H   H11       1.0  0.1037896283925075  0.6614935593757945  0.9471558320230763  1.0000
  H   H12       1.0  0.39621037092240075  0.161493558785601  0.5528441673810109  1.0000
  H   H13       1.0  0.7109846994459539  0.5336016707327751  0.05685425954076844  1.0000
  H   H14       1.0  0.789015300651401  0.03360167156959271  0.44314574071428436  1.0000
  H   H15       1.0  0.28901530031243433  0.46639832902060074  0.9431457406662821  1.0000
  H   H16       1.0  0.21098470001598657  0.9663983281837832  0.5568542594952799  1.0000
  H   H17       1.0  0.15076233633246489  0.21614807665655494  0.9731173969134379  1.0000
  H   H18       1.0  0.34923766389144273  0.7161480758197374  0.5268826024931631  1.0000
  H   H19       1.0  0.8492376642304095  0.783851924523832  0.026882602541165423  1.0000
  H   H20       1.0  0.6507623357624323  0.2838519239336385  0.4731173969589264  1.0000
  H   H21       1.0  0.02322498621864976  0.01694237101901569  0.21855378833733244  1.0000
  H   H22       1.0  0.476775014115044  0.5169423716092091  0.28144621176744966  1.0000
  H   H23       1.0  0.9767750143442246  0.9830576287343602  0.7814462111172708  1.0000
  H   H24       1.0  0.5232249856433441  0.48305762814416675  0.7185537884396008  1.0000
  H   H25       1.0  0.2929286398298583  0.4052415398170486  0.2171435223545063  1.0000
  H   H26       1.0  0.2070713605038355  0.905241540407242  0.28285647775027584  1.0000
  H   H27       1.0  0.7070713599285299  0.5947584599363274  0.7828564778525442  1.0000
  H   H28       1.0  0.792928640163552  0.09475845934613386  0.7171435224592885  1.0000
  H   H29       1.0  0.807430278095574  0.13019710365351939  0.2196308264645667  1.0000
  H   H30       1.0  0.6925697218972676  0.6301971042437129  0.28036917303552517  1.0000
  H   H31       1.0  0.1925697215583009  0.8698028960998565  0.780369172987523  1.0000
  H   H32       1.0  0.30743027775660736  0.36980289550966305  0.7196308264165644  1.0000
  H   H33       1.0  0.5078709706881409  0.025737967506276646  0.28059248662111397  1.0000
  H   H34       1.0  0.9921290293047006  0.525737966669459  0.2194075128789779  1.0000
  H   H35       1.0  0.4921290290702472  0.9742620322470992  0.7194075135859365  1.0000
  H   H36       1.0  0.00787097125817367  0.47426203308391685  0.7805924865756254  1.0000
  H   H37       1.0  0.5389840385795068  0.6972141867692198  0.15616818578757047  1.0000
  H   H38       1.0  0.961015961517848  0.19721418617902628  0.34383181446748234  1.0000
  H   H39       1.0  0.46101596117888133  0.3027858144111672  0.8438318144194801  1.0000
  H   H40       1.0  0.038984039149539566  0.8027858135743496  0.6561681857420819  1.0000
  C   C1        1.0  0.7223889130281309  0.27542131690955923  0.9849665971033942  1.0000
  C   C2        1.0  0.777611087063951  0.7754213174997527  0.5150334032084385  1.0000
  C   C3        1.0  0.2776110867302572  0.7245786828438167  0.015033403103656404  1.0000
  C   C4        1.0  0.22238891269443717  0.22457868368063422  0.484966596998612  1.0000
  C   C5        1.0  0.4947709953352811  0.26071540750999184  0.921225381721177  1.0000
  C   C6        1.0  0.0052290040841403325  0.7607154066731743  0.5787746184378713  1.0000
  C   C7        1.0  0.505229004423107  0.739284592243384  0.0787746184858736  1.0000
  C   C8        1.0  0.9947709956742479  0.23928459308020164  0.4212253817691792  1.0000
  C   C9        1.0  0.5363086158497048  0.43003136837889205  0.985748939588397  1.0000
  C   C10       1.0  0.9636913841378639  0.9300313675420745  0.5142510599684746  1.0000
  C   C11       1.0  0.4636913839086833  0.5699686328014949  0.01425106061865343  1.0000
  C   C12       1.0  0.03630861642501048  0.06996863221130138  0.48574893948612874  1.0000
  N   N1        1.0  0.6624265100361807  0.42747575431730767  0.0137633471719629  1.0000
  N   N2        1.0  0.8375734899566609  0.92747575348049  0.48623665232812896  1.0000
  N   N3        1.0  0.33757348972220746  0.5725242454360682  0.9862366530350876  1.0000
  N   N4        1.0  0.16242651060621344  0.0725242462728858  0.5137633471264743  1.0000
  N   N5        1.0  0.8417362705493521  0.2516343874131165  0.004203355539482333  1.0000
  N   N6        1.0  0.6582637285344901  0.75163438800331  0.4957966439580958  1.0000
  N   N7        1.0  0.15826372910452285  0.7483656123402594  0.9957966439126072  1.0000
  N   N8        1.0  0.34173627111938476  0.2483656117500659  0.5042033554939938  1.0000
  O   O1        1.0  0.12541897312704398  0.13637264511545338  0.03768606019598354  1.0000
  O   O2        1.0  0.3745810272066498  0.6363726457056469  0.46231393990879854  1.0000
  O   O3        1.0  0.8745810275403435  0.8636273546379225  0.9623139400135807  1.0000
  O   O4        1.0  0.6254189724472251  0.36362735404772906  0.5376860595432911  1.0000
  O   O5        1.0  0.03819237325873808  0.3887715279975393  0.1461695107698197  1.0000
  O   O6        1.0  0.46180762616595633  0.8887715271607217  0.3538304893324487  1.0000
  O   O7        1.0  0.961807626395137  0.6112284717558366  0.8538304886822699  1.0000
  O   O8        1.0  0.5381923735924319  0.11122847259265416  0.6461695108746018  1.0000
  O   O9        1.0  0.11558652174917779  0.06445717458775652  0.21844217347281752  1.0000
  O   O10       1.0  0.384413478584516  0.56445717517795  0.28155782663196455  1.0000
  O   O11       1.0  0.8844134780092104  0.9355428251656193  0.781557826734233  1.0000
  O   O12       1.0  0.6155865220828715  0.4355428245754259  0.7184421735775995  1.0000
  O   O13       1.0  0.26887506383345705  0.3008151450107002  0.1674621790988576  1.0000
  O   O14       1.0  0.23112493559123734  0.8008151456008937  0.3325378210034107  1.0000
  O   O15       1.0  0.7311249359249311  0.6991848547426757  0.832537821108193  1.0000
  O   O16       1.0  0.7688750641671509  0.19918485415248222  0.6674621792036397  1.0000
  O   O17       1.0  0.755382592020378  0.25157434592435557  0.21856562501163682  1.0000
  O   O18       1.0  0.7446174079724638  0.751574346514549  0.28143437448845504  1.0000
  O   O19       1.0  0.24461740763349696  0.7484256538290204  0.7814343744404527  1.0000
  O   O20       1.0  0.25538259178592454  0.24842565323882687  0.7185656257185954  1.0000
  O   O21       1.0  0.5437990377815971  0.11969015991679795  0.23253351821487828  1.0000
  O   O22       1.0  0.9562009623157577  0.6196901590799804  0.2674664820401745  1.0000
  O   O23       1.0  0.456200961976791  0.880309839836578  0.7674664819921722  1.0000
  O   O24       1.0  0.0437990374426304  0.38030984067339557  0.7325335181668761  1.0000
  O   O25       1.0  0.6002636972492379  0.46313247444911265  0.2785750982390151  1.0000
  O   O26       1.0  0.899736302848117  0.9631324750393062  0.2214249020160377  1.0000
  O   O27       1.0  0.39973630341814986  0.5368675253042632  0.7214249019705492  1.0000
  O   O28       1.0  0.1002636969102711  0.03686752471406976  0.7785750981910129  1.0000
  O   O29       1.0  0.686613716436263  0.19008667852909747  0.3926217678297157  1.0000
  O   O30       1.0  0.8133862835565786  0.6900866776922799  0.10737823167037612  1.0000
  O   O31       1.0  0.31338628332212515  0.8099133212242784  0.6073782323773348  1.0000
  O   O32       1.0  0.18661371700629575  0.309913322061096  0.8926217677842273  1.0000
  P   P1        1.0  0.13268051194990838  0.23456652361779357  0.1434300804751525  1.0000
  P   P2        1.0  0.3673194882792722  0.734566524207987  0.3565699188746687  1.0000
  P   P3        1.0  0.8673194877039665  0.7654334761355823  0.856569918976937  1.0000
  P   P4        1.0  0.6326805122836021  0.2654334755453888  0.6434300805799347  1.0000
  P   P5        1.0  0.6459494059235021  0.2557212356739667  0.2839421284264007  1.0000
  P   P6        1.0  0.8540505932648532  0.7557212362641601  0.21605787182613836  1.0000
  P   P7        1.0  0.35405059383488596  0.7442787640794091  0.7160578717806497  1.0000
  P   P8        1.0  0.14594940649353488  0.24427876491622674  0.7839421283809122  1.0000
  S   S1        1.0  0.6284302092952466  0.10849159959102415  0.9179391506709769  1.0000
  S   S2        1.0  0.8715697898878358  0.6084916001812176  0.5820608496383421  1.0000
  S   S3        1.0  0.3715697904631414  0.8915084001623518  0.0820608495360737  1.0000
  S   S4        1.0  0.12843020987055237  0.3915084009991693  0.41793915056870845  1.0000
