data_image0
_chemical_formula_structural       H32C26N4O6F8S2I4
_chemical_formula_sum              "H32 C26 N4 O6 F8 S2 I4"
_cell_length_a       8.542783239003601
_cell_length_b       8.806864356549617
_cell_length_c       12.7361184023139
_cell_angle_alpha    82.15196772851473
_cell_angle_beta     82.67403388177743
_cell_angle_gamma    81.43206175977818

_space_group_name_H-M_alt    "P 1"
_space_group_IT_number       1

loop_
  _space_group_symop_operation_xyz
  'x, y, z'

loop_
  _atom_site_type_symbol
  _atom_site_label
  _atom_site_symmetry_multiplicity
  _atom_site_fract_x
  _atom_site_fract_y
  _atom_site_fract_z
  _atom_site_occupancy
  H   H1        1.0  0.3486553941133401  0.4292716592099451  0.2463303251722351  1.0000
  H   H2        1.0  0.6513446047725749  0.5707283414423534  0.7536696746702458  1.0000
  H   H3        1.0  0.3841276252961553  0.5518375605458365  0.3355953102880245  1.0000
  H   H4        1.0  0.615872374937301  0.4481624389588899  0.6644046895561188  1.0000
  H   H5        1.0  0.49499934128095946  0.4156629555426746  0.08950895333511977  1.0000
  H   H6        1.0  0.5050006589524968  0.5843370439620518  0.9104910465090233  1.0000
  H   H7        1.0  0.674041811144005  0.4922874816728562  0.060368553771244435  1.0000
  H   H8        1.0  0.32595818891111406  0.5077125189791731  0.9396314460784321  1.0000
  H   H9        1.0  0.5770532048410811  0.14287423661167561  0.19275977433072672  1.0000
  H   H10       1.0  0.4229467950744202  0.8571257638937584  0.8072402263162768  1.0000
  H   H11       1.0  0.5858641487477997  0.9732760243652802  0.12874617122632365  1.0000
  H   H12       1.0  0.4141358513073192  0.02672397628674915  0.8712538286233529  1.0000
  H   H13       1.0  0.34520609537458685  0.10440233848108083  0.03632703723315641  1.0000
  H   H14       1.0  0.6547939048588693  0.8955976610236456  0.9636729626109867  1.0000
  H   H15       1.0  0.3104258527819225  0.05122444224250283  0.17745031302906086  1.0000
  H   H16       1.0  0.6895741474515338  0.9487755572622235  0.8225496868150822  1.0000
  H   H17       1.0  0.07534184476948798  0.24520882183601986  0.16546758250824628  1.0000
  H   H18       1.0  0.9246581541551466  0.7547911775223806  0.8345324181260283  1.0000
  H   H19       1.0  0.13400708871890693  0.30500906653835413  0.027669800051487087  1.0000
  H   H20       1.0  0.865992911336212  0.6949909341136751  0.9723301997981894  1.0000
  H   H21       1.0  0.955554374331711  0.507519827708966  0.12731342428438497  1.0000
  H   H22       1.0  0.044445625762127676  0.49248017164916513  0.8726865763570852  1.0000
  H   H23       1.0  0.10909295742566737  0.5086644847323523  0.20855568940508393  1.0000
  H   H24       1.0  0.8909070426681713  0.49133551462577874  0.7914443112363864  1.0000
  H   H25       1.0  0.18796058550648692  0.7586466244500945  0.1409958339093849  1.0000
  H   H26       1.0  0.812039414548632  0.24135337620193473  0.8590041659402917  1.0000
  H   H27       1.0  0.005097297447048243  0.7850820942729362  0.08228234455767594  1.0000
  H   H28       1.0  0.9949027027864079  0.2149179052317902  0.9177176552864671  1.0000
  H   H29       1.0  0.17362053840160688  0.8141656167900587  0.8990833886020209  1.0000
  H   H30       1.0  0.8263794606626453  0.18583438271493705  0.10091661123492662  1.0000
  H   H31       1.0  0.15782357013783543  0.9685001481020408  0.978983000826474  1.0000
  H   H32       1.0  0.8421764299560031  0.03149985125609026  0.021016999814996207  1.0000
  C   C1        1.0  0.5402420032691725  0.5457465404003519  0.20037734774138397  1.0000
  C   C2        1.0  0.4597579969642838  0.4542534591043745  0.7996226521027592  1.0000
  C   C3        1.0  0.5472894643804557  0.09951869793101914  0.1211680630772549  1.0000
  C   C4        1.0  0.45271053567466346  0.9004813027210099  0.8788319367724217  1.0000
  C   C5        1.0  0.3703683982337672  0.1287086313509457  0.11475038576581766  1.0000
  C   C6        1.0  0.629631600830485  0.8712913681540501  0.8852496140711299  1.0000
  C   C7        1.0  0.14672600912826927  0.3227036781384612  0.11019429741047816  1.0000
  C   C8        1.0  0.8532739911051871  0.6772963213662652  0.889805702433665  1.0000
  C   C9        1.0  0.08587965800546915  0.48710037529503747  0.12903597638667696  1.0000
  C   C10       1.0  0.91412034204965  0.5128996253569919  0.8709640234629995  1.0000
  C   C11       1.0  0.13448188928060284  0.7467209926001728  0.06856796960076741  1.0000
  C   C12       1.0  0.8655181109528535  0.25327900690455357  0.9314320302433757  1.0000
  C   C13       1.0  0.20643700403549808  0.8456893814923565  0.9737797187631505  1.0000
  C   C14       1.0  0.7935629960196211  0.1543106191596727  0.02622028108652595  1.0000
  C   C15       1.0  0.8157787910500093  0.06715222795985669  0.41976134491557254  1.0000
  C   C16       1.0  0.18422120904382944  0.9328477713982744  0.5802386557258977  1.0000
  C   C17       1.0  0.733751089127785  0.014067030561506967  0.5173400447226215  1.0000
  C   C18       1.0  0.266248910927334  0.9859329700905222  0.482659955127055  1.0000
  C   C19       1.0  0.7528889858289934  0.8563169374978624  0.5515770227050938  1.0000
  C   C20       1.0  0.24711101422612566  0.14368306315416693  0.4484229771445827  1.0000
  C   C21       1.0  0.8481807759696202  0.7494812392174967  0.4917828973405501  1.0000
  C   C22       1.0  0.15181922394588115  0.25051876128793726  0.5082171033064534  1.0000
  C   C23       1.0  0.9300792912547421  0.8023577027258827  0.39526670702482697  1.0000
  C   C24       1.0  0.06992070897871419  0.1976422967788437  0.6047332928193162  1.0000
  C   C25       1.0  0.9129011804393612  0.9604619337292629  0.3603200195324931  1.0000
  C   C26       1.0  0.08709881961575783  0.039538066922766416  0.6396799803171834  1.0000
  N   N1        1.0  0.4069978444130061  0.5146610740541581  0.26264472304172487  1.0000
  N   N2        1.0  0.5930021556421128  0.48533892659787126  0.7373552768079517  1.0000
  N   N3        1.0  0.569810574703397  0.48573491340403124  0.1083234352676573  1.0000
  N   N4        1.0  0.43018942436085517  0.5142650861009646  0.8916765645692902  1.0000
  O   O1        1.0  0.6249471921564861  0.17534295556102578  0.026562227332649  1.0000
  O   O2        1.0  0.3750528080769702  0.8246570439437005  0.9734377725114942  1.0000
  O   O3        1.0  0.3113198005450475  0.28728293424095824  0.12783582284133568  1.0000
  O   O4        1.0  0.688680199548791  0.7127170651171729  0.8721641778001344  1.0000
  O   O5        1.0  0.16208851544906197  0.5887022663535499  0.04766402301348686  1.0000
  O   O6        1.0  0.8379114846060571  0.41129773429847927  0.9523359768361895  1.0000
  F   F1        1.0  0.6742927236278675  0.7993302034388932  0.6448377230458955  1.0000
  F   F2        1.0  0.32570727628763385  0.2006697970665408  0.3551622776011081  1.0000
  F   F3        1.0  0.8582194677360447  0.5969056886697247  0.5259086266890904  1.0000
  F   F4        1.0  0.14178053231907436  0.40309431198230466  0.4740913731605861  1.0000
  F   F5        1.0  0.025047562717932063  0.7014342597518043  0.3363242522763705  1.0000
  F   F6        1.0  0.974952436167983  0.2985657409004944  0.6636757475661103  1.0000
  F   F7        1.0  0.9944033644832828  0.006044325214305257  0.2649799388173466  1.0000
  F   F8        1.0  0.005596635571836196  0.9939556754377241  0.7350200610323299  1.0000
  S   S1        1.0  0.6684961893165057  0.6550731195023413  0.23840437858634886  1.0000
  S   S2        1.0  0.33150381073861335  0.344926881149688  0.7615956212633277  1.0000
  I   I1        1.0  0.7896046802831634  0.303549652657232  0.3569019205488599  1.0000
  I   I2        1.0  0.21039531977195555  0.6964503479947972  0.6430980793008166  1.0000
  I   I3        1.0  0.5669036261983007  0.15822500070773574  0.6147188584644837  1.0000
  I   I4        1.0  0.4330963738568184  0.8417749999442934  0.3852811413851928  1.0000
