data_image0
_chemical_formula_structural       H36C28N4O6F8S2I4
_chemical_formula_sum              "H36 C28 N4 O6 F8 S2 I4"
_cell_length_a       9.764248211297545
_cell_length_b       10.38987621089067
_cell_length_c       11.117923222753712
_cell_angle_alpha    85.59457233098315
_cell_angle_beta     65.49735203690607
_cell_angle_gamma    71.72306238737173

_space_group_name_H-M_alt    "P 1"
_space_group_IT_number       1

loop_
  _space_group_symop_operation_xyz
  'x, y, z'

loop_
  _atom_site_type_symbol
  _atom_site_label
  _atom_site_symmetry_multiplicity
  _atom_site_fract_x
  _atom_site_fract_y
  _atom_site_fract_z
  _atom_site_occupancy
  H   H1        1.0  0.13231592523520772  0.647988145037079  0.3789573789901147  1.0000
  H   H2        1.0  0.8676840741924313  0.3520118551019089  0.6210426206565355  1.0000
  H   H3        1.0  0.10641880111874606  0.5782371238006397  0.5354923139520039  1.0000
  H   H4        1.0  0.8935811978125565  0.42176287639950855  0.4645076866849636  1.0000
  H   H5        1.0  0.17391102079645376  0.4690804709890431  0.3935738424550967  1.0000
  H   H6        1.0  0.8260889799893572  0.5309195281353553  0.6064261571981409  1.0000
  H   H7        1.0  0.36201149765605173  0.5591407315396013  0.48928700658001634  1.0000
  H   H8        1.0  0.6379885012752508  0.440859268660547  0.5107129940569513  1.0000
  H   H9        1.0  0.3428025360808876  0.48263200529852945  0.18827358997110183  1.0000
  H   H10       1.0  0.6571974643673852  0.517367994839566  0.8117264096835405  1.0000
  H   H11       1.0  0.5466127106317044  0.4039707905033127  0.11126338652427765  1.0000
  H   H12       1.0  0.4533872882995982  0.5960292096968357  0.8887366141126899  1.0000
  H   H13       1.0  0.1753133287836673  0.23149036300446316  0.03649204413633807  1.0000
  H   H14       1.0  0.8246866706439717  0.7685096371345248  0.9635079555103121  1.0000
  H   H15       1.0  0.22974342607893272  0.3708451562429456  0.94716242379594  1.0000
  H   H16       1.0  0.7702565738730035  0.6291548439563103  0.05283757684901976  1.0000
  H   H17       1.0  0.9785858931023901  0.44010025551004717  0.16049886798199228  1.0000
  H   H18       1.0  0.021414107345882782  0.5598997446280483  0.8395011316726502  1.0000
  H   H19       1.0  0.09356508972391755  0.35840744583256134  0.25031429351164686  1.0000
  H   H20       1.0  0.9064349107243553  0.6415925543055341  0.7496857061429955  1.0000
  H   H21       1.0  0.9785719851250654  0.6606855062186695  0.10128292821089376  1.0000
  H   H22       1.0  0.02142801380623727  0.3393144939814789  0.8987170724260738  1.0000
  H   H23       1.0  0.17503461534868303  0.590263012842209  0.975816639909301  1.0000
  H   H24       1.0  0.8249653850995897  0.4097369872958864  0.02418335974534134  1.0000
  H   H25       1.0  0.09888558533527379  0.8361612945055272  0.04617934575626159  1.0000
  H   H26       1.0  0.9011144146166626  0.16383870569372852  0.953820654888698  1.0000
  H   H27       1.0  0.08722853082412386  0.7866055695153177  0.20709613989008524  1.0000
  H   H28       1.0  0.9127714691278124  0.21339443068393826  0.7929038607548745  1.0000
  H   H29       1.0  0.2653335015641095  0.9061946848523832  0.15095883956967032  1.0000
  H   H30       1.0  0.7346664988841631  0.09380531528571211  0.8490411600849722  1.0000
  H   H31       1.0  0.35755042725864217  0.9006247130663627  0.9741286244247304  1.0000
  H   H32       1.0  0.6424495735271686  0.0993752860580355  0.02587137522850724  1.0000
  H   H33       1.0  0.5344796626588657  0.8932186649395982  0.08982835577823808  1.0000
  H   H34       1.0  0.465520337789407  0.10678133519849714  0.9101716438764044  1.0000
  H   H35       1.0  0.507536843411628  0.736550410716821  0.15574037928352993  1.0000
  H   H36       1.0  0.49246315654030837  0.2634495894824348  0.84425962136143  1.0000
  C   C1        1.0  0.7257876462101918  0.905685830044704  0.38475074322663166  1.0000
  C   C2        1.0  0.2742123542380808  0.09431417009339157  0.6152492564280108  1.0000
  C   C3        1.0  0.7305503501262082  0.9453548027250609  0.5006318200737563  1.0000
  C   C4        1.0  0.2694496503220646  0.05464519741303461  0.49936817958088614  1.0000
  C   C5        1.0  0.7961150856844579  0.047922765543921594  0.49728704256163  1.0000
  C   C6        1.0  0.20388491476381476  0.9520772345941738  0.5027129570930126  1.0000
  C   C7        1.0  0.8592574576897843  0.11022511965132388  0.38073919159996117  1.0000
  C   C8        1.0  0.1407425412415181  0.8897748805488246  0.6192608090370064  1.0000
  C   C9        1.0  0.8520468931485037  0.07348596954622495  0.2664373998714238  1.0000
  C   C10       1.0  0.14795310627913547  0.9265140305927629  0.7335625997752264  1.0000
  C   C11       1.0  0.7832973820117297  0.9734776124457685  0.27040398253011155  1.0000
  C   C12       1.0  0.2167026174159093  0.026522387693219324  0.7295960171165388  1.0000
  C   C13       1.0  0.4691325370447145  0.488056719600255  0.2981227165002783  1.0000
  C   C14       1.0  0.5308674618865882  0.5119432805998935  0.7018772841366893  1.0000
  C   C15       1.0  0.18014120808811415  0.5619534004490879  0.429104582432256  1.0000
  C   C16       1.0  0.8198587913395249  0.4380465996899  0.5708954172143941  1.0000
  C   C17       1.0  0.21670624433536387  0.31828920872759253  0.03976596983310634  1.0000
  C   C18       1.0  0.7832937550922753  0.6817107914113955  0.9602340298135439  1.0000
  C   C19       1.0  0.09766952764275448  0.4116832166998181  0.16023984092181268  1.0000
  C   C20       1.0  0.9023304728055184  0.5883167834382773  0.8397601587328296  1.0000
  C   C21       1.0  0.1057705194302018  0.6301618461852151  0.08004711891483106  1.0000
  C   C22       1.0  0.8942294795011005  0.36983815401493336  0.9199528817221366  1.0000
  C   C23       1.0  0.1447099299754206  0.7533678280085422  0.10076625655485928  1.0000
  C   C24       1.0  0.8552900703140538  0.2466321711770166  0.8992337440886956  1.0000
  C   C25       1.0  0.35438523765033075  0.8411814480180181  0.061580347498055035  1.0000
  C   C26       1.0  0.6456147623016055  0.15881855218123775  0.9384196531469047  1.0000
  C   C27       1.0  0.5113175925819073  0.8007173664166174  0.07123965788066178  1.0000
  C   C28       1.0  0.4886824073700291  0.1992826337826384  0.928760342764298  1.0000
  N   N1        1.0  0.3413621479515336  0.5475350342764868  0.40777843940769554  1.0000
  N   N2        1.0  0.6586378528342773  0.4524649648479117  0.5922215602455421  1.0000
  N   N3        1.0  0.4507345066426134  0.45564965275121466  0.1929934557777019  1.0000
  N   N4        1.0  0.5492654933093231  0.5443503474480413  0.8070065448672578  1.0000
  O   O1        1.0  0.3662978823484355  0.2720041326607619  0.04830084711686245  1.0000
  O   O2        1.0  0.6337021180998373  0.7279958674773335  0.95169915253778  1.0000
  O   O3        1.0  0.1377574120852597  0.5306178183318281  0.1694381764279978  1.0000
  O   O4        1.0  0.8622425873423792  0.46938218180715996  0.8305618232186524  1.0000
  O   O5        1.0  0.3122047830849367  0.7226206389436323  0.05457514614960065  1.0000
  O   O6        1.0  0.6877952163427022  0.2773793611953557  0.9454248534970495  1.0000
  F   F1        1.0  0.7821420681597561  0.9393384522951357  0.15511294815048943  1.0000
  F   F2        1.0  0.2178579322885166  0.06066154784295973  0.8448870515041529  1.0000
  F   F3        1.0  0.917634148069506  0.13103460318992455  0.15241424468157191  1.0000
  F   F4        1.0  0.08236585086179639  0.8689653970102238  0.8475857559553958  1.0000
  F   F5        1.0  0.931081540991765  0.2030680159949354  0.3768068905566335  1.0000
  F   F6        1.0  0.06891845945650761  0.79693198414316  0.623193109098009  1.0000
  F   F7        1.0  0.8053725896005587  0.08832025736062202  0.6062294474032331  1.0000
  F   F8        1.0  0.19462740933074404  0.9116797428395262  0.3937705532337343  1.0000
  S   S1        1.0  0.6556372412945051  0.45293609259704914  0.29398985628196217  1.0000
  S   S2        1.0  0.3443627591537674  0.5470639075410463  0.7060101433726803  1.0000
  I   I1        1.0  0.6655652163535711  0.7295068109013572  0.3646611746787401  1.0000
  I   I2        1.0  0.3344347830740681  0.2704931892376309  0.6353388249679102  1.0000
  I   I3        1.0  0.6535143065486656  0.8520751066922224  0.6803569698690813  1.0000
  I   I4        1.0  0.3464856938996071  0.1479248934458729  0.319643029785561  1.0000
