data_image0
_chemical_formula_structural       H32C32N16O8Cl8
_chemical_formula_sum              "H32 C32 N16 O8 Cl8"
_cell_length_a       11.90477922175939
_cell_length_b       13.61238631741831
_cell_length_c       6.883045686806571
_cell_angle_alpha    90.0
_cell_angle_beta     104.10649504640615
_cell_angle_gamma    90.0

_space_group_name_H-M_alt    "P 1"
_space_group_IT_number       1

loop_
  _space_group_symop_operation_xyz
  'x, y, z'

loop_
  _atom_site_type_symbol
  _atom_site_label
  _atom_site_symmetry_multiplicity
  _atom_site_fract_x
  _atom_site_fract_y
  _atom_site_fract_z
  _atom_site_occupancy
  H   H1        1.0  0.6420640606403707  0.25457526984565  0.7200579760253981  1.0000
  H   H2        1.0  0.3579359399092506  0.7545752699404787  0.7799420246578951  1.0000
  H   H3        1.0  0.35793593978291377  0.7454247303440075  0.27994202360582165  1.0000
  H   H4        1.0  0.6420640607260896  0.2454247302491787  0.2200579764713425  1.0000
  H   H5        1.0  0.47737474179619893  0.14796582193841248  0.7715738636620854  1.0000
  H   H6        1.0  0.5226252585413668  0.6479658220332413  0.72842613552319  1.0000
  H   H7        1.0  0.5226252586270856  0.852034178251245  0.2284261359691344  1.0000
  H   H8        1.0  0.4773747418819178  0.35203417815641624  0.27157386410802975  1.0000
  H   H9        1.0  0.7294630671566973  0.7361615161610062  0.6696553852597369  1.0000
  H   H10       1.0  0.2705369323411117  0.23616151606617758  0.8303446139272531  1.0000
  H   H11       1.0  0.2705369324268305  0.2638384840286511  0.33034461437319745  1.0000
  H   H12       1.0  0.7294630672424162  0.7638384841234799  0.16965538570568123  1.0000
  H   H13       1.0  0.7848368731302312  0.8352995363825734  0.5462192088760053  1.0000
  H   H14       1.0  0.21516312636757778  0.33529953628774467  0.953780790310985  1.0000
  H   H15       1.0  0.21516312645329658  0.164700463807084  0.4537807907569292  1.0000
  H   H16       1.0  0.78483687321595  0.6647004639019127  0.046219209321949506  1.0000
  H   H17       1.0  0.3793940597111186  0.9315573819539521  0.7941033449171303  1.0000
  H   H18       1.0  0.6206059397866904  0.43155738185912335  0.7058966542698598  1.0000
  H   H19       1.0  0.6206059398724092  0.06844261823570533  0.20589665471580412  1.0000
  H   H20       1.0  0.37939405979683744  0.568442618330534  0.2941033453630746  1.0000
  H   H21       1.0  0.08179806354707388  0.9161297342878499  0.7628867923233685  1.0000
  H   H22       1.0  0.918201936162791  0.41612973419302124  0.7371132083616395  1.0000
  H   H23       1.0  0.9182019362485097  0.0838702659018075  0.23711320880758371  1.0000
  H   H24       1.0  0.08179806342073707  0.5838702659966363  0.262886791271295  1.0000
  H   H25       1.0  0.05966936321228898  0.027098244304747242  0.6170522717668089  1.0000
  H   H26       1.0  0.9403306371252768  0.5270982443995759  0.8829477274184667  1.0000
  H   H27       1.0  0.9403306372109954  0.9729017551502851  0.38294772786441095  1.0000
  H   H28       1.0  0.059669363298007816  0.47290175505545645  0.11705227221275316  1.0000
  H   H29       1.0  0.08726202744968455  0.03443451346956036  0.8792217888867394  1.0000
  H   H30       1.0  0.9127379722601802  0.5344345135643891  0.6207782117982685  1.0000
  H   H31       1.0  0.9127379721338433  0.965565485985472  0.12077821074619494  1.0000
  H   H32       1.0  0.08726202753540338  0.4655654858906433  0.37922178933268375  1.0000
  C   C1        1.0  0.6720617283254404  0.878467636104228  0.7251065513156669  1.0000
  C   C2        1.0  0.32793827222418104  0.3784676360093993  0.7748934493676266  1.0000
  C   C3        1.0  0.32793827230989986  0.12153236408542943  0.2748934498135709  1.0000
  C   C4        1.0  0.6720617281991036  0.6215323641802581  0.22510655026359325  1.0000
  C   C5        1.0  0.750724396678133  0.12868119293371735  0.6973010388913389  1.0000
  C   C6        1.0  0.24927560387148842  0.6286811930285461  0.8026989617919547  1.0000
  C   C7        1.0  0.2492756037451516  0.87131880725594  0.30269896073988095  1.0000
  C   C8        1.0  0.7507243967638516  0.3713188071611114  0.19730103933728313  1.0000
  C   C9        1.0  0.647480471468525  0.17482073859121366  0.7226957150412298  1.0000
  C   C10       1.0  0.35251952802928394  0.6748207386860424  0.7773042841457604  1.0000
  C   C11       1.0  0.35251952811500276  0.8251792608638188  0.2773042845917047  1.0000
  C   C12       1.0  0.6474804715542439  0.32517926076899  0.22269571548717396  1.0000
  C   C13       1.0  0.558206526357384  0.11734198271732128  0.7510741269633844  1.0000
  C   C14       1.0  0.44179347419223725  0.61734198281215  0.7489258737199088  1.0000
  C   C15       1.0  0.4417934740659004  0.8826580174723362  0.24892587266783525  1.0000
  C   C16       1.0  0.5582065264431029  0.38265801737750743  0.25107412740932883  1.0000
  C   C17       1.0  0.5747111160397771  0.014617810967161757  0.7522007866535464  1.0000
  C   C18       1.0  0.42528888450984426  0.5146178110619904  0.747799214029747  1.0000
  C   C19       1.0  0.4252888843835074  0.9853821892224957  0.24779921297767343  1.0000
  C   C20       1.0  0.574711116125496  0.48538218912766695  0.2522007870994907  1.0000
  C   C21       1.0  0.7607199065839945  0.8120556618243608  0.6828699967484257  1.0000
  C   C22       1.0  0.23928009396562686  0.31205566172953214  0.8171300039348677  1.0000
  C   C23       1.0  0.23928009383929005  0.18794433836529656  0.3171300028827941  1.0000
  C   C24       1.0  0.7607199058299567  0.6879443384601254  0.1828699971960846  1.0000
  C   C25       1.0  0.23472760730456463  0.0030829451222891247  0.766459310981198  1.0000
  C   C26       1.0  0.7652723930330011  0.5030829452171178  0.7335406882040774  1.0000
  C   C27       1.0  0.7652723931187198  0.9969170543327432  0.23354068865002175  1.0000
  C   C28       1.0  0.23472760739028348  0.4969170542379145  0.26645931142714235  1.0000
  C   C29       1.0  0.10814587520257136  0.992745870186482  0.7561464406178063  1.0000
  C   C30       1.0  0.8918541242952378  0.4927458700916532  0.7438535585691837  1.0000
  C   C31       1.0  0.8918541243809565  0.007254130003175514  0.243853559015128  1.0000
  C   C32       1.0  0.10814587528829021  0.5072541300980042  0.2561464410637507  1.0000
  N   N1        1.0  0.5099523460743125  0.9371462829905507  0.7750034505875354  1.0000
  N   N2        1.0  0.4900476544753089  0.437146282895722  0.724996550095758  1.0000
  N   N3        1.0  0.49004765434897213  0.0628537171991067  0.22499654904368438  1.0000
  N   N4        1.0  0.5099523461600312  0.5628537172939354  0.27500345103347973  1.0000
  N   N5        1.0  0.5703439667222837  0.8535033401993164  0.7582818024589408  1.0000
  N   N6        1.0  0.42965603361528204  0.3535033401044877  0.7417181967263345  1.0000
  N   N7        1.0  0.42965603370100075  0.14649665999034098  0.24171819717227883  1.0000
  N   N8        1.0  0.5703439668080026  0.6464966600851697  0.2582818029048852  1.0000
  N   N9        1.0  0.6787228877999846  0.9794032669305345  0.7215400457625121  1.0000
  N   N10       1.0  0.3212771119098801  0.4794032675703308  0.7784599549224959  1.0000
  N   N11       1.0  0.32127711178354335  0.020596732524497906  0.27845995387042227  1.0000
  N   N12       1.0  0.6787228876736477  0.5205967326193266  0.2215400447104385  1.0000
  N   N13       1.0  0.7686583211416741  0.03346425816736549  0.6952497695797648  1.0000
  N   N14       1.0  0.2313416783561349  0.5334642582621942  0.8047502296072252  1.0000
  N   N15       1.0  0.23134167844185374  0.9665357412876668  0.30475023005316954  1.0000
  N   N16       1.0  0.768658321227393  0.4665357419274632  0.1952497700257092  1.0000
  O   O1        1.0  0.2935779791669037  0.9187230356515372  0.7969626669397746  1.0000
  O   O2        1.0  0.706422020542961  0.41872303555670853  0.7030373337452335  1.0000
  O   O3        1.0  0.7064220204166242  0.08127696380349511  0.20303733269315982  1.0000
  O   O4        1.0  0.2935779792526225  0.5812769638983238  0.29696266738571886  1.0000
  O   O5        1.0  0.28184084512950675  0.08255701342842411  0.7492152160077595  1.0000
  O   O6        1.0  0.7181591543683024  0.5825570135232528  0.7507847831792305  1.0000
  O   O7        1.0  0.7181591544540212  0.9174429860266083  0.25078478362517476  1.0000
  O   O8        1.0  0.28184084521522557  0.4174429859317796  0.24921521645370395  1.0000
  Cl  Cl1       1.0  0.8639205582702584  0.19985451974125007  0.6663444010307655  1.0000
  Cl  Cl2       1.0  0.13607944122755067  0.6998545198360788  0.8336555981562246  1.0000
  Cl  Cl3       1.0  0.1360794413132695  0.8001454804484073  0.3336555986021689  1.0000
  Cl  Cl4       1.0  0.8639205583559773  0.30014548035357863  0.16634440147670976  1.0000
  Cl  Cl5       1.0  0.8928634219266472  0.8124670481800973  0.8797113184937475  1.0000
  Cl  Cl6       1.0  0.1071365775711618  0.31246704808526865  0.6202886806932426  1.0000
  Cl  Cl7       1.0  0.10713657765688064  0.18753295200956005  0.12028868113918693  1.0000
  Cl  Cl8       1.0  0.8928634220123661  0.6875329521043888  0.3797113189396918  1.0000
