data_image0
_chemical_formula_structural       H138C102N24O16Br10
_chemical_formula_sum              "H138 C102 N24 O16 Br10"
_cell_length_a       12.952913628693254
_cell_length_b       15.710799914481447
_cell_length_c       16.137404706022814
_cell_angle_alpha    111.34256419485152
_cell_angle_beta     98.079530351566
_cell_angle_gamma    106.22636871717798

_space_group_name_H-M_alt    "P 1"
_space_group_IT_number       1

loop_
  _space_group_symop_operation_xyz
  'x, y, z'

loop_
  _atom_site_type_symbol
  _atom_site_label
  _atom_site_symmetry_multiplicity
  _atom_site_fract_x
  _atom_site_fract_y
  _atom_site_fract_z
  _atom_site_occupancy
  H   H1        1.0  0.3191588323137012  0.5491787255942592  0.8540498786429176  1.0000
  H   H2        1.0  0.6808411670438236  0.45082127394283084  0.14595012128286874  1.0000
  H   H3        1.0  0.7935834449467642  0.3966748067295554  0.835355797077771  1.0000
  H   H4        1.0  0.20641655463646078  0.6033251931186301  0.1646442035391567  1.0000
  H   H5        1.0  0.6103513631134255  0.2879676476714154  0.8324802338915068  1.0000
  H   H6        1.0  0.38964863646898146  0.7120323525283032  0.16751976603364965  1.0000
  H   H7        1.0  0.5014023571459895  0.5351167211562156  0.9183227191358426  1.0000
  H   H8        1.0  0.49859764221153535  0.46488327838087434  0.08167728078994364  1.0000
  H   H9        1.0  0.6855634146558556  0.6428201675966827  0.9240996695356839  1.0000
  H   H10       1.0  0.31443658569868177  0.35717983260299097  0.07590033039015216  1.0000
  H   H11       1.0  0.19663554435962238  0.4461984132127837  0.9312320742065677  1.0000
  H   H12       1.0  0.8033644557700328  0.5538015863242615  0.06876792571989812  1.0000
  H   H13       1.0  0.003796714368101112  0.44384561406852296  0.9266454514154097  1.0000
  H   H14       1.0  0.9962032854400061  0.5561543864422912  0.07335454920088826  1.0000
  H   H15       1.0  0.8430533920736024  0.2837870205238613  0.8516308187943358  1.0000
  H   H16       1.0  0.15694660850663517  0.7162129799869079  0.14836918182264175  1.0000
  H   H17       1.0  0.8771799795272666  0.12950955256179586  0.7761022471530855  1.0000
  H   H18       1.0  0.12282001983025835  0.870490446975294  0.22389775277270066  1.0000
  H   H19       1.0  0.8668663953405674  0.8374908337259  0.7251719535461008  1.0000
  H   H20       1.0  0.13313360424183968  0.16250916647381844  0.27482804637905567  1.0000
  H   H21       1.0  0.8333568678722265  0.673846988835278  0.7255095855212423  1.0000
  H   H22       1.0  0.1666431317109986  0.3261530110129075  0.2744904150956855  1.0000
  H   H23       1.0  0.9851399806306047  0.6049749003905205  0.7184278946276493  1.0000
  H   H24       1.0  0.014860019723932572  0.395025099809153  0.2815721052981867  1.0000
  H   H25       1.0  0.16993899860555287  0.7002762547949727  0.7100191156045478  1.0000
  H   H26       1.0  0.8300610007519718  0.2997237447421172  0.28998088432123836  1.0000
  H   H27       1.0  0.4617622862284606  0.7769661507480514  0.6387141716819215  1.0000
  H   H28       1.0  0.5382377139011945  0.2230338487889936  0.3612858282445444  1.0000
  H   H29       1.0  0.6403098735487321  0.7753634983759534  0.6031016861551463  1.0000
  H   H30       1.0  0.35969012603367484  0.22463650182376504  0.3968983137700103  1.0000
  H   H31       1.0  0.7620397826951101  0.9181343962264702  0.5817132334144398  1.0000
  H   H32       1.0  0.23796021743454512  0.08186560331057488  0.41828676651202606  1.0000
  H   H33       1.0  0.6986201330960693  0.054882443045080206  0.5914070214030157  1.0000
  H   H34       1.0  0.30137986725846805  0.9451175571545934  0.4085929785228204  1.0000
  H   H35       1.0  0.6573292357146299  0.28244102286799216  0.5543453673941925  1.0000
  H   H36       1.0  0.34267076486560777  0.7175589776427771  0.44565463322278515  1.0000
  H   H37       1.0  0.7017652122339754  0.4394874163861003  0.5403445325638045  1.0000
  H   H38       1.0  0.29823478734843156  0.5605125838136181  0.4596554673613519  1.0000
  H   H39       1.0  0.4521717797360431  0.5048992775452719  0.6764350598263731  1.0000
  H   H40       1.0  0.547828220393612  0.49510072199177324  0.3235649401000928  1.0000
  H   H41       1.0  0.4036165880427737  0.34594433053320356  0.6880931599782942  1.0000
  H   H42       1.0  0.5963834123117636  0.65405566966647  0.3119068399475418  1.0000
  H   H43       1.0  0.43547544002027894  0.2715076572744982  0.8616119666114046  1.0000
  H   H44       1.0  0.564524559562128  0.7284923429252202  0.1383880333137518  1.0000
  H   H45       1.0  0.268066482106007  0.2259402774186612  0.8640647851537377  1.0000
  H   H46       1.0  0.7319335177021002  0.7740597230921529  0.13593521546256015  1.0000
  H   H47       1.0  0.1367597346615878  0.11812108682317644  0.7342574334067001  1.0000
  H   H48       1.0  0.8632402654680673  0.8818789127138688  0.26574256651976585  1.0000
  H   H49       1.0  0.12131088124071732  0.9756203076787597  0.689172865443898  1.0000
  H   H50       1.0  0.8786891183416897  0.024379692520958732  0.3108271344812584  1.0000
  H   H51       1.0  0.2563433888859267  0.9530026818546028  0.7559529594691021  1.0000
  H   H52       1.0  0.7436566104715981  0.04699731768248717  0.24404704045668407  1.0000
  H   H53       1.0  0.3894360425824371  0.9925451977876665  0.7105696211097337  1.0000
  H   H54       1.0  0.610563957000788  0.0074548020605191435  0.28943037950719414  1.0000
  H   H55       1.0  0.4194081939245926  0.05272323470593392  0.61583317583369  1.0000
  H   H56       1.0  0.5805918056578143  0.9472767654937846  0.38416682409146635  1.0000
  H   H57       1.0  0.41715469789549775  0.18890942030342364  0.636648131797993  1.0000
  H   H58       1.0  0.5828453024590395  0.8110905798962499  0.36335186812784315  1.0000
  H   H59       1.0  0.039639188558522075  0.8353853725670466  0.5388049059438971  1.0000
  H   H60       1.0  0.9603608107990027  0.16461462697004345  0.46119509398188924  1.0000
  H   H61       1.0  0.13483790551884384  0.7881974173515056  0.48720281525410253  1.0000
  H   H62       1.0  0.8651620938386809  0.21180258218558434  0.5127971846716838  1.0000
  H   H63       1.0  0.08364349980328653  0.8301656323526487  0.35438814072438046  1.0000
  H   H64       1.0  0.9163565005512508  0.169834367847025  0.6456118592014556  1.0000
  H   H65       1.0  0.1269595084659337  0.9330188086289549  0.46327544229529904  1.0000
  H   H66       1.0  0.8730404916637213  0.06698119090809025  0.5367245576311669  1.0000
  H   H67       1.0  0.9836660160107168  0.8751735549678227  0.4040105280782125  1.0000
  H   H68       1.0  0.016333983346808  0.12482644456926731  0.5959894718475738  1.0000
  H   H69       1.0  0.9673160247307893  0.6741255305027402  0.28855355724917753  1.0000
  H   H70       1.0  0.032683974626735376  0.32587446903434986  0.7114464426766087  1.0000
  H   H71       1.0  0.9136097279669957  0.5671496404946738  0.30496938944872143  1.0000
  H   H72       1.0  0.08639027261324207  0.4328503600160955  0.6950306111682562  1.0000
  H   H73       1.0  0.16344344305160463  0.6950264237299107  0.3570243151483733  1.0000
  H   H74       1.0  0.8365565570780505  0.3049735758071344  0.6429756847780925  1.0000
  H   H75       1.0  0.09072614362587474  0.5753644747613181  0.2694615250139153  1.0000
  H   H76       1.0  0.9092738565037805  0.424635524775727  0.7305384749125506  1.0000
  H   H77       1.0  0.11400461663720468  0.5949308173496759  0.38661880845126767  1.0000
  H   H78       1.0  0.8859953837173328  0.40506918284999777  0.6133811914745685  1.0000
  H   H79       1.0  0.9621364282805879  0.6988416197153485  0.5550181974104164  1.0000
  H   H80       1.0  0.037863571301819166  0.30115838048437  0.4449818025147401  1.0000
  H   H81       1.0  0.06339891814023615  0.6574357457315019  0.5094260522198263  1.0000
  H   H82       1.0  0.9366010819894189  0.3425642538055432  0.4905739477066396  1.0000
  H   H83       1.0  0.808445508315418  0.5395298896145146  0.4414376034567747  1.0000
  H   H84       1.0  0.1915544910421069  0.4604701099225753  0.5585623964690116  1.0000
  H   H85       1.0  0.909093827559896  0.5260228335900808  0.5161718952447014  1.0000
  H   H86       1.0  0.09090617179762875  0.4739771659470091  0.48382810468108484  1.0000
  H   H87       1.0  0.9115928786572043  0.4943994615459827  0.3994773904369319  1.0000
  H   H88       1.0  0.08840712147245099  0.5056005379910624  0.600522609489534  1.0000
  H   H89       1.0  0.8507005310051317  0.7394107275405892  0.3578557165069025  1.0000
  H   H90       1.0  0.14929946934940574  0.2605892726590843  0.6421442834189336  1.0000
  H   H91       1.0  0.7922910147860708  0.6279738724578856  0.36638186918869664  1.0000
  H   H92       1.0  0.2077089847963362  0.37202612774183286  0.6336181307364599  1.0000
  H   H93       1.0  0.8074766553310945  0.720190966334456  0.5348971170150544  1.0000
  H   H94       1.0  0.19252334479856076  0.27980903320258915  0.46510288291141155  1.0000
  H   H95       1.0  0.7353358091366753  0.7603033956624669  0.464687524097435  1.0000
  H   H96       1.0  0.26466419121868023  0.2396966041856739  0.5353124765201724  1.0000
  H   H97       1.0  0.8744005460523656  0.8334160457400464  0.5287852067789843  1.0000
  H   H98       1.0  0.1255994543021718  0.16658395445962723  0.4712147931468518  1.0000
  H   H99       1.0  0.3300519942342989  0.025039860493216447  0.2099974914335535  1.0000
  H   H100      1.0  0.6699480053481082  0.9749601397065021  0.7900025084916029  1.0000
  H   H101      1.0  0.19142694685342584  0.9449597088713075  0.1505598837397265  1.0000
  H   H102      1.0  0.8085730527289812  0.05504029132841098  0.8494401161854299  1.0000
  H   H103      1.0  0.2610306439206237  0.8105631074686459  0.06628755372001519  1.0000
  H   H104      1.0  0.7389693564339136  0.18943689273102782  0.933712446205821  1.0000
  H   H105      1.0  0.3128237305252589  0.8594219723632995  0.18797678770783013  1.0000
  H   H106      1.0  0.6871762696043963  0.14057802717374562  0.8120232122186357  1.0000
  H   H107      1.0  0.4019369031015454  0.8923703607921043  0.12296349708015708  1.0000
  H   H108      1.0  0.5980630970281098  0.1076296387449409  0.8770365028463089  1.0000
  H   H109      1.0  0.2151891194544234  0.9552100986358598  0.9287694057832844  1.0000
  H   H110      1.0  0.7848108806752317  0.044789900901185384  0.0712305941431816  1.0000
  H   H111      1.0  0.2370263985683931  0.863704503905296  0.9602691406026764  1.0000
  H   H112      1.0  0.7629736010140139  0.1362954962944225  0.0397308593224801  1.0000
  H   H113      1.0  0.06545506343430768  0.8504248676405369  0.022542779199682658  1.0000
  H   H114      1.0  0.9345449369202297  0.14957513255913693  0.9774572207261535  1.0000
  H   H115      1.0  0.037261520754502016  0.8245421252777712  0.9040106599230932  1.0000
  H   H116      1.0  0.9627384796000353  0.1754578749219025  0.09598934000274292  1.0000
  H   H117      1.0  0.04196304512775815  0.9384890450229737  0.9853087022395456  1.0000
  H   H118      1.0  0.958036955001897  0.0615109545140714  0.014691297686920231  1.0000
  H   H119      1.0  0.15942998084520235  0.058383220985579215  0.11888613674896294  1.0000
  H   H120      1.0  0.8405700187372046  0.9416167792141392  0.8811138631761934  1.0000
  H   H121      1.0  0.29909657618331165  0.13929779903878614  0.17197449122575464  1.0000
  H   H122      1.0  0.7009034233990954  0.8607022011609324  0.8280255086994018  1.0000
  H   H123      1.0  0.3074863529206995  0.1682610941918849  0.02775882450245144  1.0000
  H   H124      1.0  0.6925136474338378  0.8317389060077887  0.9722411754233846  1.0000
  H   H125      1.0  0.1980491369360683  0.19552529478129602  0.07382021688188667  1.0000
  H   H126      1.0  0.8019508626463386  0.8044747054184225  0.9261797830432698  1.0000
  H   H127      1.0  0.16669646024860488  0.08680447228673635  0.9738284012365386  1.0000
  H   H128      1.0  0.83330353910892  0.9131955272503537  0.02617159868924772  1.0000
  H   H129      1.0  0.41165793474090584  0.9639540782333633  0.027958620838039638  1.0000
  H   H130      1.0  0.5883420656136316  0.03604592196631031  0.9720413790877965  1.0000
  H   H131      1.0  0.3883426507447064  0.0599435675482373  0.004612755179401286  1.0000
  H   H132      1.0  0.6116573493849488  0.940056431988808  0.9953872447470647  1.0000
  H   H133      1.0  0.4732411694158973  0.17433731891341236  0.17693855756362434  1.0000
  H   H134      1.0  0.5267588299416276  0.8256626806236776  0.8230614423621619  1.0000
  H   H135      1.0  0.5649242344710527  0.12377023559864803  0.12418850630004072  1.0000
  H   H136      1.0  0.4350757651113542  0.8762297646010703  0.8758114936251157  1.0000
  H   H137      1.0  0.5000118257527543  0.07613911816291806  0.19496204302397413  1.0000
  H   H138      1.0  0.49998817382965255  0.9238608820368003  0.8050379569011822  1.0000
  C   C1        1.0  0.31500062169204207  0.6191640115342639  0.8586154689038176  1.0000
  C   C2        1.0  0.6849993784376132  0.3808359880027812  0.14138453102264842  1.0000
  C   C3        1.0  0.7487970293304345  0.5251970736775861  0.8786513073993976  1.0000
  C   C4        1.0  0.2512029702519725  0.4748029265221323  0.12134869252575885  1.0000
  C   C5        1.0  0.7291951928720704  0.425765712773314  0.8541081594478577  1.0000
  C   C6        1.0  0.27080480671033663  0.5742342874264045  0.14589184047729872  1.0000
  C   C7        1.0  0.6270911493911048  0.3656508897781969  0.8522594821332923  1.0000
  C   C8        1.0  0.3729088501913022  0.6343491104215216  0.1477405177918642  1.0000
  C   C9        1.0  0.5422487722776225  0.4035496844191813  0.8725324491539863  1.0000
  C   C10       1.0  0.4577512280769149  0.5964503157804923  0.1274675507718497  1.0000
  C   C11       1.0  0.5647842248641031  0.5046943641958679  0.8998902612273341  1.0000
  C   C12       1.0  0.4352157754904342  0.4953056360038057  0.10010973869850191  1.0000
  C   C13       1.0  0.6672525328681526  0.5648373010451988  0.9025473670400964  1.0000
  C   C14       1.0  0.33274746671507244  0.4351626988029868  0.09745263357683134  1.0000
  C   C15       1.0  0.33982538140608093  0.355954880509713  0.8557442407524818  1.0000
  C   C16       1.0  0.6601746189484564  0.6440451196899606  0.1442557591733544  1.0000
  C   C17       1.0  0.14624321825277448  0.2896493405485245  0.8593245808253176  1.0000
  C   C18       1.0  0.8537567821017629  0.7103506596511491  0.14067541910051853  1.0000
  C   C19       1.0  0.126454244424866  0.3771013139036067  0.8987943991319727  1.0000
  C   C20       1.0  0.8735457557047892  0.6228986856334384  0.1012056007944933  1.0000
  C   C21       1.0  0.01798070536605565  0.37524347664534036  0.8966193665539354  1.0000
  C   C22       1.0  0.9820192949884817  0.6247565235543333  0.10338063337190083  1.0000
  C   C23       1.0  0.9282177468880299  0.2860672272280076  0.8545765755270074  1.0000
  C   C24       1.0  0.0717822534665075  0.713932772971666  0.14542342439882872  1.0000
  C   C25       1.0  0.9466515040838929  0.1989801269024135  0.8133272211060281  1.0000
  C   C26       1.0  0.05334849604576228  0.8010198726346315  0.1866727788204377  1.0000
  C   C27       1.0  0.05529990384177139  0.19983183414026545  0.8152292313344894  1.0000
  C   C28       1.0  0.9447000957406356  0.800168166059453  0.18477076859066713  1.0000
  C   C29       1.0  0.02604120913243684  0.026283491750672048  0.7727732967525189  1.0000
  C   C30       1.0  0.9739587914478008  0.9737165087600972  0.2272267038644585  1.0000
  C   C31       1.0  0.03692064550115292  0.8615332556981888  0.7196303314617828  1.0000
  C   C32       1.0  0.9630793546285022  0.1384667438388562  0.28036966846468303  1.0000
  C   C33       1.0  0.9327506761363827  0.8070887694597477  0.7230584359759304  1.0000
  C   C34       1.0  0.06724932344602422  0.19291123073997077  0.276941563949226  1.0000
  C   C35       1.0  0.9142992040060315  0.7150221776521108  0.7222300556728725  1.0000
  C   C36       1.0  0.08570079612362375  0.2849778218849343  0.27776994425359347  1.0000
  C   C37       1.0  0.9990723249813975  0.6761246127672507  0.7173435710723305  1.0000
  C   C38       1.0  0.0009276746010093862  0.3238753874324678  0.282656428852826  1.0000
  C   C39       1.0  0.1028259115783592  0.729293116291958  0.7134463349440787  1.0000
  C   C40       1.0  0.8971740880040476  0.2707068839077604  0.28655366498107765  1.0000
  C   C41       1.0  0.12279636546161607  0.8219481630772114  0.7145166663823577  1.0000
  C   C42       1.0  0.8772036348929213  0.1780518371224622  0.2854833335434785  1.0000
  C   C43       1.0  0.2906575104244515  0.847244816715648  0.6553559217319979  1.0000
  C   C44       1.0  0.7093424897052037  0.15275518282139713  0.344644078194468  1.0000
  C   C45       1.0  0.4794506940026276  0.9166249889860114  0.6372106250487489  1.0000
  C   C46       1.0  0.5205493063519098  0.08337501121366218  0.36278937487708723  1.0000
  C   C47       1.0  0.5145083714891292  0.83796484995783  0.6290089954335324  1.0000
  C   C48       1.0  0.4854916280932778  0.16203515024188836  0.37099100449162403  1.0000
  C   C49       1.0  0.6157382896915308  0.8377556135229873  0.6090901298527458  1.0000
  C   C50       1.0  0.3842617106630065  0.16224438667668625  0.3909098700730903  1.0000
  C   C51       1.0  0.6827756543880033  0.9168045629335559  0.5973783199490473  1.0000
  C   C52       1.0  0.3172243451944036  0.08319543726616237  0.40262167997610904  1.0000
  C   C53       1.0  0.6478778595358023  0.9943771141017927  0.6026049978816104  1.0000
  C   C54       1.0  0.35212214081873494  0.005622886097880836  0.3973950020442256  1.0000
  C   C55       1.0  0.545544164276012  0.9949901257339712  0.6214589717986908  1.0000
  C   C56       1.0  0.454455835853643  0.005009873803073864  0.378541028127775  1.0000
  C   C57       1.0  0.5639568856778491  0.16040278178436668  0.631860979772449  1.0000
  C   C58       1.0  0.43604311467668816  0.8395972184153069  0.368139020153387  1.0000
  C   C59       1.0  0.5282952359928541  0.3038597306215756  0.6234330303249485  1.0000
  C   C60       1.0  0.4717047643616833  0.6961402695780979  0.37656696960088765  1.0000
  C   C61       1.0  0.6137130020235528  0.33134320897199654  0.5824113918482474  1.0000
  C   C62       1.0  0.386286997333972  0.6686567905650934  0.41758860807753884  1.0000
  C   C63       1.0  0.6386169233322113  0.41905844784211305  0.5744323418015354  1.0000
  C   C64       1.0  0.361383077022326  0.5809415523575606  0.4255676581243007  1.0000
  C   C65       1.0  0.580529269248661  0.4813170396942207  0.608869245824833  1.0000
  C   C66       1.0  0.41947073110587624  0.5186829605054528  0.3911307541010029  1.0000
  C   C67       1.0  0.4956467517009447  0.4552027763645826  0.6496698713302058  1.0000
  C   C68       1.0  0.5043532478814623  0.544797223835136  0.3503301285949508  1.0000
  C   C69       1.0  0.4690879521980035  0.3665715951586004  0.655882474190472  1.0000
  C   C70       1.0  0.5309120479316517  0.6334284043784448  0.344117525735994  1.0000
  C   C71       1.0  0.05598694270831974  0.799799003910711  0.4724398589988832  1.0000
  C   C72       1.0  0.944013056649205  0.20020099562637889  0.5275601409269031  1.0000
  C   C73       1.0  0.06132781814552895  0.8615031456629394  0.4188546827960982  1.0000
  C   C74       1.0  0.9386721816625784  0.1384968548478746  0.5811453178201997  1.0000
  C   C75       1.0  0.9819318185747733  0.6382763129465309  0.3336104230724499  1.0000
  C   C76       1.0  0.018068181779764193  0.3617236872531428  0.6663895768533862  1.0000
  C   C77       1.0  0.09438936778709142  0.6264867924479564  0.3385988827520553  1.0000
  C   C78       1.0  0.9056106323425639  0.37351320708908886  0.6614011171744106  1.0000
  C   C79       1.0  0.9758888456151061  0.6511404895294183  0.4921221207053283  1.0000
  C   C80       1.0  0.024111154514548958  0.34885951000762677  0.5078778792211376  1.0000
  C   C81       1.0  0.8963518043344438  0.5469146104804324  0.4586971175661061  1.0000
  C   C82       1.0  0.10364819547366326  0.45308539003038156  0.5413028830501918  1.0000
  C   C83       1.0  0.8505859678892305  0.7038229350901288  0.40502935615997143  1.0000
  C   C84       1.0  0.14941403246530674  0.29617706510954467  0.5949706437658646  1.0000
  C   C85       1.0  0.8169281907279697  0.757391175948569  0.4892524303569364  1.0000
  C   C86       1.0  0.18307180962656755  0.24260882425110453  0.5107475695688997  1.0000
  C   C87       1.0  0.2773866691311066  0.9626013461185604  0.14510666001194217  1.0000
  C   C88       1.0  0.7226133312234307  0.037398654081113133  0.8548933399138939  1.0000
  C   C89       1.0  0.3155372650022298  0.876494626975283  0.12789485883980709  1.0000
  C   C90       1.0  0.6844627345801771  0.12350537322443532  0.8721051410853493  1.0000
  C   C91       1.0  0.2028255045387706  0.922506329289559  0.9778665616270067  1.0000
  C   C92       1.0  0.7971744955908847  0.07749367024748623  0.02213343829945919  1.0000
  C   C93       1.0  0.08056804212316696  0.8828276996578657  0.9736357792480944  1.0000
  C   C94       1.0  0.9194319580064882  0.11717229987917953  0.026364220678371533  1.0000
  C   C95       1.0  0.23918383561102782  0.08728218819277346  0.10504616975011767  1.0000
  C   C96       1.0  0.7608161645186273  0.9127178113442717  0.8949538301763482  1.0000
  C   C97       1.0  0.22812866006414775  0.1362322262010395  0.040734545578455884  1.0000
  C   C98       1.0  0.7718713402903895  0.863767773998634  0.9592654543473802  1.0000
  C   C99       1.0  0.3949842260718938  0.03198031681567474  0.057627760727729925  1.0000
  C   C100      1.0  0.6050157742826435  0.9680196833839989  0.9423722391981061  1.0000
  C   C101      1.0  0.48688163252816963  0.1054063267264587  0.1440187334425112  1.0000
  C   C102      1.0  0.5131183670542374  0.8945936734732598  0.8559812664826453  1.0000
  N   N1        1.0  0.8560826782386246  0.5885943182390578  0.8827610959197997  1.0000
  N   N2        1.0  0.14391732211591268  0.41140568196061583  0.11723890400603641  1.0000
  N   N3        1.0  0.43992272290351236  0.3395528448969618  0.8655480202187337  1.0000
  N   N4        1.0  0.5600772774510251  0.6604471553027118  0.13445197970710226  1.0000
  N   N5        1.0  0.2545927970582505  0.28739934095780767  0.8638809033853838  1.0000
  N   N6        1.0  0.7454072032971051  0.7126006588903332  0.13611909723222368  1.0000
  N   N7        1.0  0.07721040580593741  0.11454663687143328  0.7707459568520965  1.0000
  N   N8        1.0  0.9227895943237177  0.8854533626656118  0.22925404307436945  1.0000
  N   N9        1.0  0.059027187749066325  0.9534634476499669  0.7180449656325019  1.0000
  N   N10       1.0  0.9409728116084584  0.04653655188712296  0.28195503429328445  1.0000
  N   N11       1.0  0.22655685541764956  0.8793854090275816  0.7126268117708097  1.0000
  N   N12       1.0  0.7734431449368878  0.12061459117209215  0.28737318815502644  1.0000
  N   N13       1.0  0.3834156980208536  0.9241225313868876  0.665731865178059  1.0000
  N   N14       1.0  0.6165843023336837  0.07587746881278597  0.3342681347477771  1.0000
  N   N15       1.0  0.5038809055844299  0.06911767464504856  0.6243278040765607  1.0000
  N   N16       1.0  0.4961190945452252  0.9308823248919964  0.37567219584990513  1.0000
  N   N17       1.0  0.4968967556429364  0.21566625026967548  0.6305634709876545  1.0000
  N   N18       1.0  0.5031032449373012  0.7843337502410938  0.369436529629323  1.0000
  N   N19       1.0  0.6073742337268254  0.5733611124075292  0.6014133795271943  1.0000
  N   N20       1.0  0.3926257658555815  0.42663888779218934  0.39858662039796217  1.0000
  N   N21       1.0  0.9659129728253308  0.6979426192198348  0.4253942433595415  1.0000
  N   N22       1.0  0.034087026532194  0.30205738031725526  0.5746057565662448  1.0000
  N   N23       1.0  0.2790188999750452  0.0012112243321768302  0.07130054580201554  1.0000
  N   N24       1.0  0.7209811001546099  0.9987887752048682  0.9286994541244504  1.0000
  O   O1        1.0  0.929579062382499  0.552235157897992  0.8657419998565312  1.0000
  O   O2        1.0  0.07042093797203833  0.4477648423016815  0.13425800006930488  1.0000
  O   O3        1.0  0.871857840660225  0.6765555808296578  0.9036188259190406  1.0000
  O   O4        1.0  0.12814215892218195  0.3234444193700606  0.0963811740061158  1.0000
  O   O5        1.0  0.32888491791201213  0.4249265232682448  0.8399472777670305  1.0000
  O   O6        1.0  0.6711150824425253  0.5750734769314287  0.16005272215880567  1.0000
  O   O7        1.0  0.9599429733560476  0.01365722752574781  0.8194270890435033  1.0000
  O   O8        1.0  0.04005702622717751  0.9863427723224377  0.18057291157342456  1.0000
  O   O9        1.0  0.2665781361652798  0.7609061700982948  0.6001367270558025  1.0000
  O   O10       1.0  0.7334218639643754  0.23909382943875024  0.3998632728706634  1.0000
  O   O11       1.0  0.6658919944878356  0.1916711107173484  0.6416245540071908  1.0000
  O   O12       1.0  0.3341080050945713  0.80832888948237  0.3583754459179658  1.0000
  O   O13       1.0  0.5616319411373502  0.6314676347574032  0.6399426870529197  1.0000
  O   O14       1.0  0.43836805921718713  0.3685323654422704  0.3600573128729163  1.0000
  O   O15       1.0  0.6755915663781918  0.5913012566248809  0.5568185769601943  1.0000
  O   O16       1.0  0.32440843375146333  0.40869874291216424  0.44318142296627167  1.0000
  Br  Br1       1.0  0.23904520946865734  0.0893661449518975  0.6270161294639822  1.0000
  Br  Br2       1.0  0.7609547908858799  0.9106338552477761  0.37298387046185383  1.0000
  Br  Br3       1.0  0.6236756621540259  0.887152298057315  0.14045737687103346  1.0000
  Br  Br4       1.0  0.3763243374283809  0.11284770214240347  0.859542623054123  1.0000
  Br  Br5       1.0  0.4361061419198549  0.7239099540615864  0.9637343068752666  1.0000
  Br  Br6       1.0  0.5638938582098003  0.2760900454754588  0.036265693051199296  1.0000
  Br  Br7       1.0  0.16935620851661742  0.6196267529497059  0.8748397735462932  1.0000
  Br  Br8       1.0  0.8306437910657894  0.3803732472500126  0.12516022637886326  1.0000
  Br  Br9       1.0  0.3354246455518219  0.625400801819916  0.7430605142187261  1.0000
  Br  Br10      1.0  0.6645753548027155  0.3745991983797576  0.25693948570710995  1.0000
