data_image0
_chemical_formula_structural       H40C40N12O12
_chemical_formula_sum              "H40 C40 N12 O12"
_cell_length_a       6.1839175497651615
_cell_length_b       3.719272664756243
_cell_length_c       40.9031229468744
_cell_angle_alpha    90.0
_cell_angle_beta     93.81932701619085
_cell_angle_gamma    90.0

_space_group_name_H-M_alt    "P 1"
_space_group_IT_number       1

loop_
  _space_group_symop_operation_xyz
  'x, y, z'

loop_
  _atom_site_type_symbol
  _atom_site_label
  _atom_site_symmetry_multiplicity
  _atom_site_fract_x
  _atom_site_fract_y
  _atom_site_fract_z
  _atom_site_occupancy
  H   H1        1.0  0.37548797844404713  0.9238987430423327  0.18284014290936879  1.0000
  H   H2        1.0  0.6245120222111648  0.42389874368173763  0.31715985693216314  1.0000
  H   H3        1.0  0.6245120211746967  0.07610125567885737  0.8171598569674262  1.0000
  H   H4        1.0  0.3754879790282481  0.5761012550394524  0.6828401429624011  1.0000
  H   H5        1.0  0.2726913523607812  0.6421120539589478  0.1283444488277077  1.0000
  H   H6        1.0  0.7273086482944308  0.14211205459835272  0.3716555510138243  1.0000
  H   H7        1.0  0.7273086472579626  0.35788794476224234  0.8716555510490873  1.0000
  H   H8        1.0  0.27269135294498215  0.8578879441228373  0.6283444488807399  1.0000
  H   H9        1.0  0.8918555293914371  0.7557647189021628  0.09782882965858758  1.0000
  H   H10       1.0  0.10814446964310584  0.2557647195415678  0.40217117016517523  1.0000
  H   H11       1.0  0.10814447022730678  0.24423527981902723  0.9021711702182075  1.0000
  H   H12       1.0  0.8918555299756381  0.74423528186832  0.5978288297116199  1.0000
  H   H13       1.0  0.02213237323075904  0.05232477625104545  0.15031996887442314  1.0000
  H   H14       1.0  0.9778676274148518  0.5523247756116405  0.349680031211488  1.0000
  H   H15       1.0  0.977867626387985  0.9476752224701446  0.8496800310023719  1.0000
  H   H16       1.0  0.022132373814959985  0.44767522310954955  0.6503199689274555  1.0000
  H   H17       1.0  0.5227836898970347  0.010349520852492479  0.22763142340699102  1.0000
  H   H18       1.0  0.47721630913750823  0.5103495229017853  0.27236857641677176  1.0000
  H   H19       1.0  0.47721630972170925  0.9896504778686976  0.7723685764698041  1.0000
  H   H20       1.0  0.5227836904812356  0.48965047850810256  0.7276314234600233  1.0000
  H   H21       1.0  0.8251378689954755  0.5266448084220718  0.25413665781622435  1.0000
  H   H22       1.0  0.1748621300294663  0.026644806372779033  0.24586334225191753  1.0000
  H   H23       1.0  0.17486213061366723  0.47335519298781603  0.7458633423049499  1.0000
  H   H24       1.0  0.8251378695796766  0.973355192348411  0.7541366578692568  1.0000
  H   H25       1.0  0.8258795926227611  0.13878516487680795  0.27321427364414214  1.0000
  H   H26       1.0  0.17412040802284962  0.638785164237403  0.226785726441769  1.0000
  H   H27       1.0  0.17412040860705058  0.8612148338443821  0.7267857264948013  1.0000
  H   H28       1.0  0.8258795915958943  0.3612148344837871  0.773214273435026  1.0000
  H   H29       1.0  0.37745321418429184  0.2265343915179769  0.9983720659837083  1.0000
  H   H30       1.0  0.622546784388383  0.726534390878572  0.501627934172729  1.0000
  H   H31       1.0  0.622546785424851  0.7734656098919109  0.0016279341374659487  1.0000
  H   H32       1.0  0.3774532152207598  0.2734656105313159  0.4983720659484452  1.0000
  H   H33       1.0  0.19008505819430005  0.9625078644871599  0.9485529191617451  1.0000
  H   H34       1.0  0.8099149420086448  0.4625078651265649  0.5514470807680822  1.0000
  H   H35       1.0  0.8099149414244439  0.03749213423403013  0.051447080715049914  1.0000
  H   H36       1.0  0.19008505922116686  0.5374921362833229  0.4485529193708612  1.0000
  H   H37       1.0  0.4809784053640309  0.5144448370593985  0.07795757918407695  1.0000
  H   H38       1.0  0.519021595291181  0.014444837698803411  0.422042420657455  1.0000
  H   H39       1.0  0.519021594254713  0.4855551643504894  0.9220424206927181  1.0000
  H   H40       1.0  0.480978405948232  0.9855551637110844  0.5779575792371092  1.0000
  C   C1        1.0  0.7125686777477236  0.0025392626062329753  0.1712997551671723  1.0000
  C   C2        1.0  0.2874313228978872  0.502539261966828  0.32870024491873884  1.0000
  C   C3        1.0  0.2874313218614192  0.997460736114957  0.828700244954002  1.0000
  C   C4        1.0  0.7125686783319245  0.49746073675436203  0.6712997552202045  1.0000
  C   C5        1.0  0.4973339837760818  0.8905560921592393  0.16506398386164078  1.0000
  C   C6        1.0  0.50266601524886  0.3905560927986442  0.33493601620650115  1.0000
  C   C7        1.0  0.5026660158426621  0.10944390925064854  0.8349360160151541  1.0000
  C   C8        1.0  0.49733398436028275  0.6094439086112435  0.665063983914673  1.0000
  C   C9        1.0  0.43692768223351397  0.7368861567936755  0.13479684737912326  1.0000
  C   C10       1.0  0.5630723167914278  0.23688615743308045  0.3652031526890186  1.0000
  C   C11       1.0  0.5630723173756288  0.2631138419275146  0.865203152742051  1.0000
  C   C12       1.0  0.43692768282731603  0.7631138439768073  0.6347968471877764  1.0000
  C   C13       1.0  0.7822385695972565  0.7999774843598352  0.11714943890300203  1.0000
  C   C14       1.0  0.2177614294276853  0.2999774849992402  0.3828505611651398  1.0000
  C   C15       1.0  0.21776143001188628  0.20002251436135482  0.8828505612181721  1.0000
  C   C16       1.0  0.7822385701910586  0.7000225137219498  0.6171494387116552  1.0000
  C   C17       1.0  0.8556762183789864  0.9596602512695648  0.14659160207346575  1.0000
  C   C18       1.0  0.14432378065555648  0.4596602519089698  0.35340839775029703  1.0000
  C   C19       1.0  0.14432378123975742  0.04033975014032296  0.8534083978033293  1.0000
  C   C20       1.0  0.8556762189631874  0.540339749500918  0.646591602126498  1.0000
  C   C21       1.0  0.7992520725747176  0.16510487542871383  0.20292909892025215  1.0000
  C   C22       1.0  0.2007479264502242  0.6651048747893088  0.29707090114788975  1.0000
  C   C23       1.0  0.20074792703442512  0.8348951232924763  0.7970709012009219  1.0000
  C   C24       1.0  0.7992520731589187  0.3348951239318812  0.7029290989732844  1.0000
  C   C25       1.0  0.10719455258823485  0.14226284752227963  0.028324855610286512  1.0000
  C   C26       1.0  0.8928054464367069  0.6422628468828746  0.47167514445785547  1.0000
  C   C27       1.0  0.892805447020908  0.8577371511989105  0.9716751445108877  1.0000
  C   C28       1.0  0.10719455318203697  0.3577371518383154  0.5283248554189396  1.0000
  C   C29       1.0  0.21270498155453915  0.1256957723024696  0.9990690306813748  1.0000
  C   C30       1.0  0.7872950186484058  0.6256957716630647  0.5009309692484526  1.0000
  C   C31       1.0  0.7872950196848737  0.8743042291074182  0.000930969213189548  1.0000
  C   C32       1.0  0.2127049809703382  0.37430422705812544  0.49906903062834246  1.0000
  C   C33       1.0  0.10641097445699874  0.9826592480386297  0.9710324548883005  1.0000
  C   C34       1.0  0.8935890257459461  0.4826592486780346  0.5289675450415269  1.0000
  C   C35       1.0  0.8935890251521441  0.017340750682560382  0.028967545232873773  1.0000
  C   C36       1.0  0.10641097387279778  0.5173407527318532  0.4710324548352681  1.0000
  C   C37       1.0  0.21726117578752122  0.2886121660753128  0.05896603408668539  1.0000
  C   C38       1.0  0.7827388248676908  0.7886121654359078  0.4410339657548466  1.0000
  C   C39       1.0  0.7827388238312227  0.7113878326458772  0.9410339657901097  1.0000
  C   C40       1.0  0.21726117637172218  0.2113878332852822  0.5589660341397177  1.0000
  N   N1        1.0  0.6728733136338816  0.13913690031486722  0.22843444855007744  1.0000
  N   N2        1.0  0.32712668701172926  0.6391368996754623  0.2715655515358337  1.0000
  N   N3        1.0  0.3271266859752613  0.8608630984063228  0.7715655515710967  1.0000
  N   N4        1.0  0.6728733142276836  0.36086309904572783  0.7284344483587305  1.0000
  N   N5        1.0  0.5764691515441723  0.6900044770361555  0.11139351492662487  1.0000
  N   N6        1.0  0.42353084748076947  0.1900044776755605  0.388606485141517  1.0000
  N   N7        1.0  0.4235308480649705  0.30999552437373223  0.8886064851945494  1.0000
  N   N8        1.0  0.5764691521283732  0.8099955237343273  0.6113935149796572  1.0000
  N   N9        1.0  0.7291855630617587  0.30945228643929795  0.2585980780324731  1.0000
  N   N10       1.0  0.27081443596318305  0.809452285799893  0.2414019220356688  1.0000
  N   N11       1.0  0.2708144365569851  0.6905477149705899  0.741401921844322  1.0000
  N   N12       1.0  0.7291855636459598  0.19054771560999476  0.7585980780855054  1.0000
  O   O1        1.0  0.9810544507164195  0.3163655305914809  0.20544588626244403  1.0000
  O   O2        1.0  0.018945549929191157  0.816365529952076  0.2945541138234671  1.0000
  O   O3        1.0  0.018945548902324333  0.6836344708184068  0.794554113614351  1.0000
  O   O4        1.0  0.9810544513006205  0.18363447145781184  0.7054458863154762  1.0000
  O   O5        1.0  0.4170517184319233  0.409563056356298  0.05558438828499413  1.0000
  O   O6        1.0  0.5829482822136874  0.9095630557168931  0.44441561180091704  1.0000
  O   O7        1.0  0.5829482811868206  0.5904369450535898  0.9444156115918008  1.0000
  O   O8        1.0  0.41705171901612426  0.09043694300429696  0.5555843883380264  1.0000
  O   O9        1.0  0.12904661927052144  0.29474614496214857  0.08530824103114636  1.0000
  O   O10       1.0  0.8709533797544203  0.7947461443227435  0.41469175903699546  1.0000
  O   O11       1.0  0.8709533803386214  0.7052538564477393  0.9146917590900278  1.0000
  O   O12       1.0  0.12904661986432353  0.20525385708714425  0.5853082408397995  1.0000
