data_image0
_chemical_formula_structural       H60C64N12O32
_chemical_formula_sum              "H60 C64 N12 O32"
_cell_length_a       14.37332102290305
_cell_length_b       5.194420046861472
_cell_length_c       22.34112115077738
_cell_angle_alpha    90.0
_cell_angle_beta     98.9153210013721
_cell_angle_gamma    90.0

_space_group_name_H-M_alt    "P 1"
_space_group_IT_number       1

loop_
  _space_group_symop_operation_xyz
  'x, y, z'

loop_
  _atom_site_type_symbol
  _atom_site_label
  _atom_site_symmetry_multiplicity
  _atom_site_fract_x
  _atom_site_fract_y
  _atom_site_fract_z
  _atom_site_occupancy
  H   H1        1.0  0.09079900353414791  0.4088139351154464  0.5478842420213356  1.0000
  H   H2        1.0  0.40920099677135496  0.9088139363801235  0.9521157578774633  1.0000
  H   H3        1.0  0.9092009967294387  0.5911860635636222  0.45211575796459774  1.0000
  H   H4        1.0  0.5907990034922317  0.09118606422408791  0.04788424210847  1.0000
  H   H5        1.0  0.013732243648147555  0.49890030390703816  0.5993180000789898  1.0000
  H   H6        1.0  0.4862677559531815  0.9989003051717151  0.9006819997433837  1.0000
  H   H7        1.0  0.9862677559112651  0.5010996947720304  0.4006819998305183  1.0000
  H   H8        1.0  0.5137322436062314  0.0010996954324961504  0.09931800016612428  1.0000
  H   H9        1.0  0.037714654623619344  0.16653440272368286  0.5875146867859111  1.0000
  H   H10       1.0  0.46228534567210333  0.6665344020632171  0.9124853135594746  1.0000
  H   H11       1.0  0.962285345630187  0.8334655978805285  0.41248531364660895  1.0000
  H   H12       1.0  0.5377146545914833  0.33346559661585146  0.0875146864264587  1.0000
  H   H13       1.0  0.21850549219128923  0.9363237466593943  0.5704199012808994  1.0000
  H   H14       1.0  0.2814945081044334  0.4363237453947172  0.9295800990644862  1.0000
  H   H15       1.0  0.7814945080625171  0.06367625394481713  0.4295800991516207  1.0000
  H   H16       1.0  0.7185054921591532  0.5636762532843514  0.07041990092144702  1.0000
  H   H17       1.0  0.25614862521611564  0.6762878874461737  0.5277242167591567  1.0000
  H   H18       1.0  0.2438513750893872  0.1762878861814967  0.9722757831396421  1.0000
  H   H19       1.0  0.743851375047471  0.3237121131580376  0.47227578322677655  1.0000
  H   H20       1.0  0.7561486251741993  0.8237121124975719  0.027724216846291144  1.0000
  H   H21       1.0  0.5016614090462357  0.8037850390098317  0.6808572903706771  1.0000
  H   H22       1.0  0.998338591344254  0.30378503967029735  0.8191427098315162  1.0000
  H   H23       1.0  0.49833859121735086  0.19621496159437973  0.3191427096152562  1.0000
  H   H24       1.0  0.0016614089095523213  0.6962149609339141  0.1808572906010038  1.0000
  H   H25       1.0  0.18211313499987353  0.5672760526520013  0.6458755051855999  1.0000
  H   H26       1.0  0.31788686529584914  0.06727605331246705  0.8541244951597858  1.0000
  H   H27       1.0  0.8178868652539328  0.43272394795221003  0.3541244952469203  1.0000
  H   H28       1.0  0.6821131349677375  0.9327239472917442  0.14587550482614745  1.0000
  H   H29       1.0  0.27867073914714263  0.4730035168188862  0.7286700360751966  1.0000
  H   H30       1.0  0.22132926114857998  0.9730035180835633  0.7713299642701889  1.0000
  H   H31       1.0  0.7213292611164439  0.5269964818601824  0.2713299639107366  1.0000
  H   H32       1.0  0.7786707391052264  0.026996482520648138  0.2286700361623311  1.0000
  H   H33       1.0  0.5472437651391147  0.0932743011980219  0.7694561933321512  1.0000
  H   H34       1.0  0.9527562345472013  0.5932743005375563  0.730543806793617  1.0000
  H   H35       1.0  0.4527562344105178  0.9067256994061895  0.2305438070239437  1.0000
  H   H36       1.0  0.04724376571638535  0.40672570006665515  0.26945619319231634  1.0000
  H   H37       1.0  0.4336937380784077  0.4259134706167518  0.7931521924042765  1.0000
  H   H38       1.0  0.06630626222709517  0.9259134718814287  0.7068478074945224  1.0000
  H   H39       1.0  0.5663062621851789  0.5740865280623169  0.20684780758165686  1.0000
  H   H40       1.0  0.9336937380364914  0.07408652872278255  0.2931521924914109  1.0000
  H   H41       1.0  0.12885001076881683  0.3283801415002297  0.686618790241131  1.0000
  H   H42       1.0  0.37114998953668604  0.828380140839764  0.8133812096576677  1.0000
  H   H43       1.0  0.8711499894947698  0.6716198591039817  0.31338120974480216  1.0000
  H   H44       1.0  0.6288500107269005  0.17161985783930464  0.18661879032826553  1.0000
  H   H45       1.0  0.4635587688284274  0.0017046638354459099  0.44517110560268425  1.0000
  H   H46       1.0  0.03644123129847575  0.5017046631749803  0.05482889461357576  1.0000
  H   H47       1.0  0.5364412314351592  0.9982953367687656  0.5548288943832489  1.0000
  H   H48       1.0  0.9635587689553307  0.49829533550408844  0.9451711058189443  1.0000
  H   H49       1.0  0.15396115474526556  0.7255650324769569  0.3318685187113532  1.0000
  H   H50       1.0  0.34603884538163765  0.22556503313742257  0.16813148150490684  1.0000
  H   H51       1.0  0.8460388448141473  0.2744349681272545  0.668131481198155  1.0000
  H   H52       1.0  0.653961154881949  0.7744349674667889  0.8318685184810264  1.0000
  H   H53       1.0  0.4557502966924906  0.6477692349953565  0.36809746144778266  1.0000
  H   H54       1.0  0.04424970344419277  0.14776923565582223  0.13190253832189058  1.0000
  H   H55       1.0  0.5442497028669221  0.3522307636837121  0.6319025384617255  1.0000
  H   H56       1.0  0.9557502968193938  0.8522307649483892  0.8680974616640427  1.0000
  H   H57       1.0  0.3986457382903025  0.45121172890439243  0.5472121674560347  1.0000
  H   H58       1.0  0.10135426130124633  0.9512117301690695  0.9527878328129259  1.0000
  H   H59       1.0  0.6013542612691103  0.5487882697746762  0.4527878324534735  1.0000
  H   H60       1.0  0.8986457382581664  0.04878827043514191  0.04721216709658232  1.0000
  C   C1        1.0  0.34983009577293783  0.7974268489323936  0.6007390867046255  1.0000
  C   C2        1.0  0.15016990453256504  0.29742684959285925  0.8992609131941732  1.0000
  C   C3        1.0  0.6501699044906488  0.20257314974667506  0.39926091328130764  1.0000
  C   C4        1.0  0.8498300957310215  0.7025731510113521  0.10073908679176002  1.0000
  C   C5        1.0  0.3670613921435504  0.9759058805925616  0.6532060078214783  1.0000
  C   C6        1.0  0.1329386081521723  0.4759058812530272  0.8467939925239073  1.0000
  C   C7        1.0  0.6329386081200362  0.02409412001164982  0.3467939921644549  1.0000
  C   C8        1.0  0.867061392101634  0.5240941193511841  0.15320600790861283  1.0000
  C   C9        1.0  0.30293164625906116  0.16692987901968268  0.6671319378595186  1.0000
  C   C10       1.0  0.19706835334226788  0.6669298802843597  0.8328680619628552  1.0000
  C   C11       1.0  0.6970683533003516  0.8330701196593859  0.3328680620499896  1.0000
  C   C12       1.0  0.802931646217145  0.3330701203198516  0.16713193794665304  1.0000
  C   C13       1.0  0.4536393261659699  0.9523660110985878  0.6915186758890388  1.0000
  C   C14       1.0  0.04636067413953291  0.45236600983391073  0.8084813240097599  1.0000
  C   C15       1.0  0.5463606740976166  0.04763398950562356  0.30848132409689444  1.0000
  C   C16       1.0  0.9536393261240537  0.5476339888451579  0.19151867597617322  1.0000
  C   C17       1.0  0.32747965378499766  0.32616225771415414  0.7178742079411148  1.0000
  C   C18       1.0  0.17252034580655112  0.8261622589788312  0.7821257923278455  1.0000
  C   C19       1.0  0.672520345774415  0.6738377409649146  0.28212579196839327  1.0000
  C   C20       1.0  0.8274796537430814  0.1738377416253802  0.21787420802824933  1.0000
  C   C21       1.0  0.47858424980313047  0.11189386587077839  0.7413812605481361  1.0000
  C   C22       1.0  0.0214157497884183  0.6118938652103127  0.7586187397208244  1.0000
  C   C23       1.0  0.5214157497465021  0.888106134733433  0.25861873980795885  1.0000
  C   C24       1.0  0.9785842497709943  0.38810613346875594  0.24138126018868375  1.0000
  C   C25       1.0  0.4150209106100185  0.2996017199148745  0.7542085795120963  1.0000
  C   C26       1.0  0.0849790896954844  0.7996017211795515  0.7457914203867025  1.0000
  C   C27       1.0  0.5849790896535682  0.7003982806893368  0.24579142047383692  1.0000
  C   C28       1.0  0.9150209105681021  0.20039827942465988  0.2542085795992308  1.0000
  C   C29       1.0  0.14986082694475716  0.37500074934774486  0.6425799180868623  1.0000
  C   C30       1.0  0.3501391733607457  0.8750007486872792  0.8574200818119365  1.0000
  C   C31       1.0  0.8501391733188295  0.6249992512564666  0.357420081899071  1.0000
  C   C32       1.0  0.6498608269028409  0.12499925191693222  0.1425799181739967  1.0000
  C   C33       1.0  0.06823824070286996  0.3607917964070609  0.5913164074791669  1.0000
  C   C34       1.0  0.4317617595928527  0.8607917957465953  0.9086835928662187  1.0000
  C   C35       1.0  0.9317617595607166  0.6392082041971505  0.4086835925067664  1.0000
  C   C36       1.0  0.5682382406609537  0.13920820293247343  0.09131640756630136  1.0000
  C   C37       1.0  0.31370495569385115  0.05604527500156628  0.43373203928188137  1.0000
  C   C38       1.0  0.18629504443305203  0.5560452743411006  0.06626796093437863  1.0000
  C   C39       1.0  0.6862950438655616  0.943954725602645  0.5662679606276269  1.0000
  C   C40       1.0  0.8137049558305345  0.44395472433796807  0.9337320390515547  1.0000
  C   C41       1.0  0.31855618808794695  0.2771887846979115  0.4769871114942807  1.0000
  C   C42       1.0  0.18144381204873647  0.7771887859625886  0.023012888275392517  1.0000
  C   C43       1.0  0.6814438121756397  0.7228112139811572  0.5230128884916526  1.0000
  C   C44       1.0  0.8185561882148502  0.22281121464162285  0.9769871117105408  1.0000
  C   C45       1.0  0.2271197066770746  0.9735172231701614  0.4014596432270834  1.0000
  C   C46       1.0  0.27288029344982856  0.47351722383062705  0.09854035698917668  1.0000
  C   C47       1.0  0.772880293586512  0.02648277550890728  0.5985403567588499  1.0000
  C   C48       1.0  0.7271197068039779  0.5264827767735843  0.9014596434433435  1.0000
  C   C49       1.0  0.22106248603037995  0.7853906852344316  0.35720976273101623  1.0000
  C   C50       1.0  0.27893751410630346  0.28539068589489724  0.14279023703865698  1.0000
  C   C51       1.0  0.7789375135290327  0.21460931344463705  0.6427902371784918  1.0000
  C   C52       1.0  0.7210624861572831  0.7146093147093141  0.8572097629472762  1.0000
  C   C53       1.0  0.30474789788285117  0.6729121265639565  0.3463458922584169  1.0000
  C   C54       1.0  0.19525210224405198  0.17291212529927946  0.15365410795784318  1.0000
  C   C55       1.0  0.6952521023807354  0.32708787404025486  0.6536541077275164  1.0000
  C   C56       1.0  0.8047478973153608  0.8270878733797891  0.8463458919516649  1.0000
  C   C57       1.0  0.3959869619742395  0.9378203218169419  0.42099924690032065  1.0000
  C   C58       1.0  0.10401303815266372  0.4378203224774075  0.07900075331593934  1.0000
  C   C59       1.0  0.604013038289347  0.06217967686212682  0.5790007530856126  1.0000
  C   C60       1.0  0.8959869621011426  0.5621796781268038  0.9209992471165809  1.0000
  C   C61       1.0  0.39236940812272614  0.7438569186053052  0.3775543549724434  1.0000
  C   C62       1.0  0.10763059200417703  0.2438569192657709  0.1224456452438167  1.0000
  C   C63       1.0  0.6076305921408605  0.2561430800737634  0.6224456450134899  1.0000
  C   C64       1.0  0.8923694082594096  0.7561430813384405  0.8775543547421165  1.0000
  N   N1        1.0  0.2674837934725653  0.8021506910126709  0.5639573306692682  1.0000
  N   N2        1.0  0.23251620611898352  0.3021506916731365  0.9360426695996924  1.0000
  N   N3        1.0  0.7325162067812412  0.19784930959154057  0.43604266976325196  1.0000
  N   N4        1.0  0.7674837934404292  0.6978493089310749  0.06395733030981579  1.0000
  N   N5        1.0  0.29881192367323833  0.4685782663014798  0.3007147965752242  1.0000
  N   N6        1.0  0.20118807574949102  0.9685782656410141  0.19928520356461074  1.0000
  N   N7        1.0  0.7011880758861744  0.5314217343027317  0.699285203334284  1.0000
  N   N8        1.0  0.7988119238099217  0.03142173303805455  0.8007147963448974  1.0000
  N   N9        1.0  0.1362107821652755  0.06966219842360202  0.4153850317774909  1.0000
  N   N10       1.0  0.3637892179616277  0.5696621977631363  0.08461496843876919  1.0000
  N   N11       1.0  0.8637892173941373  0.9303378021806095  0.5846149681320173  1.0000
  N   N12       1.0  0.6362107823019589  0.43033780284107503  0.9153850315471641  1.0000
  O   O1        1.0  0.41455226081324503  0.6402926871517787  0.5918904040867886  1.0000
  O   O2        1.0  0.0854477394922578  0.14029268588710156  0.9081095958120103  1.0000
  O   O3        1.0  0.5854477394503416  0.35970731345243273  0.40810959589914475  1.0000
  O   O4        1.0  0.9145522607713288  0.859707312791967  0.09189040417392297  1.0000
  O   O5        1.0  0.2189012442221109  0.18829399262598448  0.6296615956921046  1.0000
  O   O6        1.0  0.2810987560736117  0.6882939919655188  0.870338404653281  1.0000
  O   O7        1.0  0.7810987560414757  0.811706007978227  0.37033840429382875  1.0000
  O   O8        1.0  0.7189012441801946  0.31170600671354987  0.129661595779239  1.0000
  O   O9        1.0  0.2525979723988839  0.43395224484434425  0.47262701817526465  1.0000
  O   O10       1.0  0.24740202772801928  0.9339522461090213  0.027372982040995354  1.0000
  O   O11       1.0  0.7474020278647028  0.5660477538347244  0.5273729818106686  1.0000
  O   O12       1.0  0.7525979725355674  0.06604775449519003  0.9726270179449379  1.0000
  O   O13       1.0  0.3963999190426528  0.2880613921286725  0.516192030577506  1.0000
  O   O14       1.0  0.10360008055867623  0.7880613914682069  0.9838079692448678  1.0000
  O   O15       1.0  0.6036000805167601  0.7119386084755389  0.48380796933200226  1.0000
  O   O16       1.0  0.8963999190007366  0.2119386072108618  0.016192030664640374  1.0000
  O   O17       1.0  0.2203837227641152  0.37181508668459573  0.28351430008803785  1.0000
  O   O18       1.0  0.2796162773725682  0.8718150860241299  0.2164856996816354  1.0000
  O   O19       1.0  0.7796162774994714  0.6281849139196157  0.7164856998978955  1.0000
  O   O20       1.0  0.7203837228910184  0.12818491458008135  0.7835143003042979  1.0000
  O   O21       1.0  0.3722553042484008  0.40462468592040907  0.2820631187079901  1.0000
  O   O22       1.0  0.12774469587850235  0.9046246852599434  0.21793688150826987  1.0000
  O   O23       1.0  0.6277446960151858  0.5953753146838022  0.7179368812779431  1.0000
  O   O24       1.0  0.8722553043850843  0.09537531341912521  0.7820631184776634  1.0000
  O   O25       1.0  0.1172539476267767  0.027290546147813392  0.46653406162034167  1.0000
  O   O26       1.0  0.3827460525001265  0.5272905454873477  0.03346593859591835  1.0000
  O   O27       1.0  0.8827460526270297  0.972709454456398  0.5334659388121784  1.0000
  O   O28       1.0  0.6172539470592863  0.4727094531917209  0.9665340613135899  1.0000
  O   O29       1.0  0.08237705135385853  0.1704911659069796  0.3732546791526892  1.0000
  O   O30       1.0  0.4176229487730446  0.6704911652465139  0.12674532106357084  1.0000
  O   O31       1.0  0.9176229489097282  0.8295088346972318  0.626745320833244  1.0000
  O   O32       1.0  0.582377051490542  0.3295088353576975  0.8732546789223625  1.0000
