data_image0
_chemical_formula_structural       H26C30N10O14
_chemical_formula_sum              "H26 C30 N10 O14"
_cell_length_a       6.685765724709705
_cell_length_b       7.359066690750806
_cell_length_c       16.03896814915994
_cell_angle_alpha    92.56009816184024
_cell_angle_beta     92.32014899130365
_cell_angle_gamma    101.26857976524325

_space_group_name_H-M_alt    "P 1"
_space_group_IT_number       1

loop_
  _space_group_symop_operation_xyz
  'x, y, z'

loop_
  _atom_site_type_symbol
  _atom_site_label
  _atom_site_symmetry_multiplicity
  _atom_site_fract_x
  _atom_site_fract_y
  _atom_site_fract_z
  _atom_site_occupancy
  H   H1        1.0  0.07857754123428408  0.21693353758760617  0.9752026276080279  1.0000
  H   H2        1.0  0.9214224581587638  0.7830664619281161  0.02479737204857622  1.0000
  H   H3        1.0  0.0417109870607  0.9886410377855095  0.8332950076235025  1.0000
  H   H4        1.0  0.9582890126430664  0.011358963117668751  0.16670499207414005  1.0000
  H   H5        1.0  0.7148934263350878  0.8443127876371211  0.7246038386700415  1.0000
  H   H6        1.0  0.28510657485764707  0.15568721324128607  0.27539616167667824  1.0000
  H   H7        1.0  0.5355938600280253  0.6019028195363547  0.6357906312390162  1.0000
  H   H8        1.0  0.46440614085399085  0.3980971799545963  0.3642093690666651  1.0000
  H   H9        1.0  0.5307981998365522  0.8150528876673542  0.5858270839446484  1.0000
  H   H10       1.0  0.4692017998610977  0.18494711321945864  0.41417291637599274  1.0000
  H   H11       1.0  0.9410025690974484  0.5639973719323169  0.5705190225002842  1.0000
  H   H12       1.0  0.05899743028948295  0.43600262756703984  0.42948097777931854  1.0000
  H   H13       1.0  0.08059094543495277  0.2615757340128964  0.733318314787496  1.0000
  H   H14       1.0  0.9194090554470634  0.7384242654780546  0.2666816855181854  1.0000
  H   H15       1.0  0.31267387437927874  0.4366552410927769  0.845534329482575  1.0000
  H   H16       1.0  0.6873261265088542  0.5633447584145396  0.15446567020010776  1.0000
  H   H17       1.0  0.8296785321247754  0.3613527362555539  0.704021521990175  1.0000
  H   H18       1.0  0.1703214675789913  0.6386472646476244  0.2959784777074676  1.0000
  H   H19       1.0  0.5955872020123093  0.1858222930439458  0.5929818134636275  1.0000
  H   H20       1.0  0.40441279738073854  0.8141777064717763  0.4070181861929766  1.0000
  H   H21       1.0  0.6496998935634617  0.5790631440344391  0.8906576944373796  1.0000
  H   H22       1.0  0.35030010763538993  0.4209368568603333  0.10934230528634158  1.0000
  H   H23       1.0  0.8615614047845075  0.5647061702706434  0.8340879581141285  1.0000
  H   H24       1.0  0.138438594919259  0.43529383063253474  0.165912041583514  1.0000
  H   H25       1.0  0.8987749874525893  0.05100005049480787  0.5436748783259144  1.0000
  H   H26       1.0  0.10122501224506063  0.9489999503920049  0.45632512199472686  1.0000
  C   C1        1.0  0.744036936861395  0.17372647116122955  0.9550188252460465  1.0000
  C   C2        1.0  0.25596306402062113  0.8262735283297215  0.044981175059634844  1.0000
  C   C3        1.0  0.9403114418032482  0.15376349051352453  0.938909050318472  1.0000
  C   C4        1.0  0.059688559389486834  0.8462365103648826  0.06109095002824776  1.0000
  C   C5        1.0  0.9212637864563273  0.03835392529016517  0.8654252086075062  1.0000
  C   C6        1.0  0.07873621324743936  0.9616460756130132  0.13457479109013637  1.0000
  C   C7        1.0  0.7142254858296525  0.9962214727183965  0.8409007096213627  1.0000
  C   C8        1.0  0.28577451505848045  0.003778526788920129  0.15909929006132004  1.0000
  C   C9        1.0  0.6129085512632867  0.8914675655854797  0.768827516963243  1.0000
  C   C10       1.0  0.38709144843436316  0.10853243530133302  0.2311724833573982  1.0000
  C   C11       1.0  0.12321595215936793  0.7115714251821633  0.6763882972818046  1.0000
  C   C12       1.0  0.8767840472275632  0.28842857431719326  0.32361170299779823  1.0000
  C   C13       1.0  0.26163631464379455  0.6020387432849756  0.5600433801670638  1.0000
  C   C14       1.0  0.7383636847431367  0.39796125621438105  0.439956620112539  1.0000
  C   C15       1.0  0.4388517019796189  0.699914351828625  0.6173903146711366  1.0000
  C   C16       1.0  0.561148297413429  0.3000856476870972  0.3826096849854676  1.0000
  C   C17       1.0  0.1848673102725175  0.11990400675415602  0.5864246215409965  1.0000
  C   C18       1.0  0.8151326894251324  0.8800959941326566  0.41357537877964484  1.0000
  C   C19       1.0  0.3216082072860543  0.21496866016427663  0.6542881525395308  1.0000
  C   C20       1.0  0.678391792100877  0.7850313393350801  0.3457118477400721  1.0000
  C   C21       1.0  0.244927195671085  0.2853783499372842  0.7269451768896702  1.0000
  C   C22       1.0  0.7550728037158463  0.7146216495620725  0.27305482338993264  1.0000
  C   C23       1.0  0.37408920726573014  0.3812716239145297  0.7901922366491958  1.0000
  C   C24       1.0  0.6259107939331215  0.618728376980243  0.20980776307452534  1.0000
  C   C25       1.0  0.5884998088033703  0.41417387263294186  0.7829420191110081  1.0000
  C   C26       1.0  0.41150019058967763  0.5858261268827804  0.21705798054559614  1.0000
  C   C27       1.0  0.665667841876573  0.34005166858744884  0.710686721922523  1.0000
  C   C28       1.0  0.334332157821077  0.6599483322993638  0.28931327839811816  1.0000
  C   C29       1.0  0.5344793567609494  0.24099294156846982  0.6483705096193852  1.0000
  C   C30       1.0  0.4655206441271836  0.7590070579388467  0.3516294900632976  1.0000
  N   N1        1.0  0.6731145083672019  0.2797850854835644  0.017817926991369644  1.0000
  N   N2        1.0  0.3268854928255329  0.7202149153948426  0.9821820733553502  1.0000
  N   N3        1.0  0.4151423468662867  0.8566838142135139  0.7589795371389262  1.0000
  N   N4        1.0  0.5848576525267611  0.14331618530220833  0.241020462517678  1.0000
  N   N5        1.0  0.3339692072201482  0.7643010262384061  0.6878835463868983  1.0000
  N   N6        1.0  0.6660307936618681  0.2356989732525449  0.31211645391878307  1.0000
  N   N7        1.0  0.08623426304502119  0.6171066736384166  0.5981797353941762  1.0000
  N   N8        1.0  0.9137657366526287  0.38289332724839614  0.40182026492646494  1.0000
  N   N9        1.0  0.7142505816202286  0.5105657026127453  0.8456080587895329  1.0000
  N   N10       1.0  0.28574941777281937  0.4894342969029769  0.15439194086707123  1.0000
  O   O1        1.0  0.6046371529650438  0.07895277760593758  0.8964182282149805  1.0000
  O   O2        1.0  0.39536284673872274  0.9210472232972408  0.10358177148266208  1.0000
  O   O3        1.0  0.4855515296997854  0.2816679154462842  0.018031940053001037  1.0000
  O   O4        1.0  0.5144484696871457  0.7183320840530724  0.9819680602266018  1.0000
  O   O5        1.0  0.8049752159978589  0.3689654025521918  0.06980819840834279  1.0000
  O   O6        1.0  0.19502478369979095  0.6310345983346209  0.9301918019122983  1.0000
  O   O7        1.0  0.9944690087549181  0.7397539964732172  0.7249117114282341  1.0000
  O   O8        1.0  0.005530990942731844  0.2602460044135956  0.27508828889240705  1.0000
  O   O9        1.0  0.27238037481950156  0.5233829501276109  0.49128017881448033  1.0000
  O   O10       1.0  0.7276196245735465  0.4766170493881112  0.5087198208421239  1.0000
  O   O11       1.0  0.9883893236567679  0.12152197260895592  0.5944493211841845  1.0000
  O   O12       1.0  0.011610676046998782  0.8784780282942224  0.40555067851345816  1.0000
  O   O13       1.0  0.24830215052886717  0.04164108465679764  0.5238949618434667  1.0000
  O   O14       1.0  0.7516978488641808  0.9583589148589245  0.4761050378131374  1.0000
