data_image0
_chemical_formula_structural       H16C20N2F4I2
_chemical_formula_sum              "H16 C20 N2 F4 I2"
_cell_length_a       4.883397474476675
_cell_length_b       6.150380595608629
_cell_length_c       16.53005433735827
_cell_angle_alpha    94.28499237754623
_cell_angle_beta     94.92896434995184
_cell_angle_gamma    96.41441381077163

_space_group_name_H-M_alt    "P 1"
_space_group_IT_number       1

loop_
  _space_group_symop_operation_xyz
  'x, y, z'

loop_
  _atom_site_type_symbol
  _atom_site_label
  _atom_site_symmetry_multiplicity
  _atom_site_fract_x
  _atom_site_fract_y
  _atom_site_fract_z
  _atom_site_occupancy
  H   H1        1.0  0.19543645898558673  0.5149786401140043  0.744549298138616  1.0000
  H   H2        1.0  0.8045635417223637  0.48502136013243935  0.255450701852518  1.0000
  H   H3        1.0  0.40885202856439  0.7369765428507216  0.7283553533916975  1.0000
  H   H4        1.0  0.5911479700984095  0.26302345739702604  0.2716446466071884  1.0000
  H   H5        1.0  0.6441598254891201  0.20792455770980336  0.9645342983349519  1.0000
  H   H6        1.0  0.3558401752188303  0.7920754425366404  0.03546570165618212  1.0000
  H   H7        1.0  0.11385947873829672  0.8323474672182812  0.9404040767730762  1.0000
  H   H8        1.0  0.8861405219696535  0.1676525330281624  0.05959592321805771  1.0000
  H   H9        1.0  0.8115578743107491  0.875324274890731  0.8179164003552862  1.0000
  H   H10       1.0  0.18844212435205046  0.12467572535701668  0.18208359964359977  1.0000
  H   H11       1.0  0.07711409929699954  0.2562297226491033  0.8367508701586336  1.0000
  H   H12       1.0  0.9228859014109508  0.7437702775973405  0.16324912983250037  1.0000
  H   H13       1.0  0.29070005108616165  0.05794149940535474  0.8692212471287114  1.0000
  H   H14       1.0  0.7092999496217888  0.9420585008410889  0.13077875286242252  1.0000
  H   H15       1.0  0.2963463038482929  0.14323443557495524  0.769040903951493  1.0000
  H   H16       1.0  0.7036536968596574  0.8567655646714886  0.2309590960396409  1.0000
  C   C1        1.0  0.855603776188458  0.1247626921547257  0.5542360225631904  1.0000
  C   C2        1.0  0.14439622451949252  0.875237308091718  0.4457639774279436  1.0000
  C   C3        1.0  0.8787637043708124  0.17800875996164334  0.4743818429074374  1.0000
  C   C4        1.0  0.12123629429198696  0.8219912402861042  0.5256181570914485  1.0000
  C   C5        1.0  0.9788240441079163  0.9438681742977859  0.5786637282107946  1.0000
  C   C6        1.0  0.021175956600033817  0.056131825948657794  0.42133627178033933  1.0000
  C   C7        1.0  0.5563627117424598  0.5667381105224004  0.8215510258924378  1.0000
  C   C8        1.0  0.4436372869203397  0.43326188972534707  0.17844897410644822  1.0000
  C   C9        1.0  0.9079616930995881  0.5151804312204162  0.9634849394380309  1.0000
  C   C10       1.0  0.09203830556321148  0.48481956902733125  0.03651506056085502  1.0000
  C   C11       1.0  0.6857793086728957  0.3563039036055251  0.93335333924043  1.0000
  C   C12       1.0  0.3142206920350547  0.6436960966409186  0.06664666075070397  1.0000
  C   C13       1.0  0.5113591610133522  0.37669673990544006  0.8637999865818929  1.0000
  C   C14       1.0  0.48864083969459815  0.6233032603410037  0.13620001340924107  1.0000
  C   C15       1.0  0.9463960400850331  0.7027598625535533  0.9201506368993162  1.0000
  C   C16       1.0  0.05360395834819257  0.29724013605806465  0.07984936309969437  1.0000
  C   C17       1.0  0.7752371567682377  0.7285129711220214  0.8506187377959685  1.0000
  C   C18       1.0  0.2247628418945619  0.2714870291257262  0.14938126220291742  1.0000
  C   C19       1.0  0.28213702616936787  0.19960131004479534  0.8331324167331602  1.0000
  C   C20       1.0  0.7178629745385826  0.8003986902016484  0.1668675832579738  1.0000
  N   N1        1.0  0.3965769899664563  0.5836449055859556  0.7480126312074599  1.0000
  N   N2        1.0  0.6034230107414941  0.4163550946604881  0.25198736878367406  1.0000
  F   F1        1.0  0.967456353591435  0.8855316493513806  0.6563020990618945  1.0000
  F   F2        1.0  0.032543647116515396  0.11446835089506313  0.34369790092923946  1.0000
  F   F3        1.0  0.7589062687912526  0.34976798605676906  0.44642864413767996  1.0000
  F   F4        1.0  0.2410937319166978  0.6502320141896747  0.5535713558534541  1.0000
  I   I1        1.0  0.6521086598006821  0.31788512878905384  0.6353309893565396  1.0000
  I   I2        1.0  0.34789134090726825  0.6821148714573899  0.3646690106345943  1.0000
