data_image0
_chemical_formula_structural       H48C96N8F32I16
_chemical_formula_sum              "H48 C96 N8 F32 I16"
_cell_length_a       8.510402354944286
_cell_length_b       11.811601991354769
_cell_length_c       25.9169498412672
_cell_angle_alpha    90.0
_cell_angle_beta     90.0
_cell_angle_gamma    90.0

_space_group_name_H-M_alt    "P 1"
_space_group_IT_number       1

loop_
  _space_group_symop_operation_xyz
  'x, y, z'

loop_
  _atom_site_type_symbol
  _atom_site_label
  _atom_site_symmetry_multiplicity
  _atom_site_fract_x
  _atom_site_fract_y
  _atom_site_fract_z
  _atom_site_occupancy
  H   H1        1.0  0.39627852589609763  0.5429036708732251  0.5745060522628224  1.0000
  H   H2        1.0  0.10372147440093372  0.4570963290120767  0.0745060522872697  1.0000
  H   H3        1.0  0.6037214746979651  0.0429036705072616  0.9254939480496835  1.0000
  H   H4        1.0  0.8962785261931291  0.9570963293780401  0.42549394768828297  1.0000
  H   H5        1.0  0.6037214746979651  0.4570963290120767  0.42549394768828297  1.0000
  H   H6        1.0  0.8962785261931291  0.5429036708732251  0.9254939480496835  1.0000
  H   H7        1.0  0.39627852589609763  0.9570963293780401  0.0745060522872697  1.0000
  H   H8        1.0  0.10372147440093372  0.0429036705072616  0.5745060522628224  1.0000
  H   H9        1.0  0.3964048336727653  0.6520119240080045  0.5331531520734073  1.0000
  H   H10       1.0  0.1035951666242661  0.3479880758772974  0.03315315171200672  1.0000
  H   H11       1.0  0.6035951669212974  0.15201192364204094  0.9668468482390986  1.0000
  H   H12       1.0  0.8964048327947641  0.8479880762432609  0.46684684826354594  1.0000
  H   H13       1.0  0.6035951669212974  0.3479880758772974  0.46684684826354594  1.0000
  H   H14       1.0  0.8964048327947641  0.6520119240080045  0.9668468482390986  1.0000
  H   H15       1.0  0.3964048336727653  0.8479880762432609  0.03315315171200672  1.0000
  H   H16       1.0  0.1035951666242661  0.15201192364204094  0.5331531520734073  1.0000
  H   H17       1.0  0.6344265916949523  0.4343046729609298  0.5944269169155726  1.0000
  H   H18       1.0  0.8655734080211093  0.565695326924372  0.09442691694001991  1.0000
  H   H19       1.0  0.3655734088991104  0.9343046733268933  0.9055730830110854  1.0000
  H   H20       1.0  0.13442659139792099  0.06569532655840853  0.40557308303553274  1.0000
  H   H21       1.0  0.3655734088991104  0.565695326924372  0.40557308303553274  1.0000
  H   H22       1.0  0.13442659139792099  0.4343046729609298  0.9055730830110854  1.0000
  H   H23       1.0  0.6344265916949523  0.06569532655840853  0.09442691694001991  1.0000
  H   H24       1.0  0.8655734080211093  0.9343046733268933  0.5944269169155726  1.0000
  H   H25       1.0  0.6251674442758858  0.7061051706707051  0.48309474906125077  1.0000
  H   H26       1.0  0.8748325554401757  0.2938948292145967  0.9830947490368034  1.0000
  H   H27       1.0  0.3748325563181769  0.20610517030474163  0.016905250914301947  1.0000
  H   H28       1.0  0.12516744397885446  0.7938948295805602  0.5169052508898546  1.0000
  H   H29       1.0  0.3748325563181769  0.2938948292145967  0.5169052508898546  1.0000
  H   H30       1.0  0.12516744397885446  0.7061051706707051  0.016905250914301947  1.0000
  H   H31       1.0  0.6251674442758858  0.7938948295805602  0.9830947490368034  1.0000
  H   H32       1.0  0.8748325554401757  0.20610517030474163  0.48309474906125077  1.0000
  H   H33       1.0  0.8969619944661209  0.3835462127250686  0.5669224472782942  1.0000
  H   H34       1.0  0.6030380052499407  0.6164537880068585  0.06692244730274155  1.0000
  H   H35       1.0  0.10303800495290925  0.8835462122444069  0.9330775530342118  1.0000
  H   H36       1.0  0.3969619941690895  0.11645378764089494  0.433077553058659  1.0000
  H   H37       1.0  0.10303800495290925  0.6164537880068585  0.433077553058659  1.0000
  H   H38       1.0  0.3969619941690895  0.3835462127250686  0.9330775530342118  1.0000
  H   H39       1.0  0.8969619944661209  0.11645378764089494  0.06692244730274155  1.0000
  H   H40       1.0  0.6030380052499407  0.8835462122444069  0.5669224472782942  1.0000
  H   H41       1.0  0.8874879911655417  0.6536462298383338  0.45412859816008844  1.0000
  H   H42       1.0  0.6125120085505199  0.34635377004696805  0.9541285981356411  1.0000
  H   H43       1.0  0.11251200825348855  0.15364623031899544  0.045871401815464244  1.0000
  H   H44       1.0  0.38748799086851027  0.8463537704129316  0.545871401791017  1.0000
  H   H45       1.0  0.11251200825348855  0.34635377004696805  0.545871401791017  1.0000
  H   H46       1.0  0.38748799086851027  0.6536462298383338  0.045871401815464244  1.0000
  H   H47       1.0  0.8874879911655417  0.8463537704129316  0.9541285981356411  1.0000
  H   H48       1.0  0.6125120085505199  0.15364623031899544  0.45412859816008844  1.0000
  C   C1        1.0  0.5754535421177581  0.781561263811359  0.7275068557634753  1.0000
  C   C2        1.0  0.9245464575983035  0.21843873607394268  0.2275068557879226  1.0000
  C   C3        1.0  0.4245464584763046  0.28156126344539567  0.7724931441631828  1.0000
  C   C4        1.0  0.07545354182072674  0.7184387364399061  0.2724931441876301  1.0000
  C   C5        1.0  0.4245464584763046  0.21843873607394268  0.2724931441876301  1.0000
  C   C6        1.0  0.07545354182072674  0.781561263811359  0.7724931441631828  1.0000
  C   C7        1.0  0.5754535421177581  0.7184387364399061  0.2275068557879226  1.0000
  C   C8        1.0  0.9245464575983035  0.28156126344539567  0.7275068557634753  1.0000
  C   C9        1.0  0.6694652946332169  0.8775624396747139  0.7323613378985477  1.0000
  C   C10       1.0  0.8305347050828447  0.12243756021058794  0.23236133792299501  1.0000
  C   C11       1.0  0.3305347059608459  0.37756243930875033  0.7676386620281104  1.0000
  C   C12       1.0  0.16946529433618554  0.6224375605765514  0.26763866205255765  1.0000
  C   C13       1.0  0.3305347059608459  0.12243756021058794  0.26763866205255765  1.0000
  C   C14       1.0  0.16946529433618554  0.8775624396747139  0.7676386620281104  1.0000
  C   C15       1.0  0.6694652946332169  0.6224375605765514  0.23236133792299501  1.0000
  C   C16       1.0  0.8305347050828447  0.37756243930875033  0.7323613378985477  1.0000
  C   C17       1.0  0.5625434462823751  0.7683417521723549  0.8218175761595946  1.0000
  C   C18       1.0  0.9374565534336865  0.2316582477129469  0.3218175761840419  1.0000
  C   C19       1.0  0.4374565531366551  0.2683417518063914  0.6781824237670635  1.0000
  C   C20       1.0  0.0625434471603763  0.7316582480789104  0.17818242379151078  1.0000
  C   C21       1.0  0.4374565531366551  0.2316582477129469  0.17818242379151078  1.0000
  C   C22       1.0  0.0625434471603763  0.7683417521723549  0.6781824237670635  1.0000
  C   C23       1.0  0.5625434462823751  0.7316582480789104  0.3218175761840419  1.0000
  C   C24       1.0  0.9374565534336865  0.2683417518063914  0.8218175761595946  1.0000
  C   C25       1.0  0.5227912082693916  0.7294957353208023  0.7726301888394179  1.0000
  C   C26       1.0  0.9772087914466699  0.2705042645644995  0.2726301888638653  1.0000
  C   C27       1.0  0.4772087911496385  0.22949573580146398  0.7273698110872401  1.0000
  C   C28       1.0  0.022791207972360287  0.7705042640838378  0.2273698111116874  1.0000
  C   C29       1.0  0.4772087911496385  0.2705042645644995  0.2273698111116874  1.0000
  C   C30       1.0  0.022791207972360287  0.7294957353208023  0.7273698110872401  1.0000
  C   C31       1.0  0.5227912082693916  0.7705042640838378  0.2726301888638653  1.0000
  C   C32       1.0  0.9772087914466699  0.22949573580146398  0.7726301888394179  1.0000
  C   C33       1.0  0.6535417866311224  0.8661679209550255  0.8249425966769025  1.0000
  C   C34       1.0  0.8464582142599718  0.13383207893027627  0.32494259670134984  1.0000
  C   C35       1.0  0.3464582139629404  0.3661679214356872  0.6750574032497556  1.0000
  C   C36       1.0  0.15354178633409094  0.6338320784496146  0.17505740327420286  1.0000
  C   C37       1.0  0.3464582139629404  0.13383207893027627  0.17505740327420286  1.0000
  C   C38       1.0  0.15354178633409094  0.8661679209550255  0.6750574032497556  1.0000
  C   C39       1.0  0.6535417866311224  0.6338320784496146  0.32494259670134984  1.0000
  C   C40       1.0  0.8464582142599718  0.3661679214356872  0.8249425966769025  1.0000
  C   C41       1.0  0.7080194142054105  0.9207666689040352  0.780806832746124  1.0000
  C   C42       1.0  0.791980585510651  0.07923333098126659  0.2808068327705712  1.0000
  C   C43       1.0  0.2919805852136197  0.420766669384697  0.7191931671805342  1.0000
  C   C44       1.0  0.2080194150834117  0.5792333313472301  0.2191931672049815  1.0000
  C   C45       1.0  0.2919805852136197  0.07923333098126659  0.2191931672049815  1.0000
  C   C46       1.0  0.2080194150834117  0.9207666689040352  0.7191931671805342  1.0000
  C   C47       1.0  0.7080194142054105  0.5792333313472301  0.2808068327705712  1.0000
  C   C48       1.0  0.791980585510651  0.420766669384697  0.780806832746124  1.0000
  C   C49       1.0  0.6096718937131812  0.5744819013514448  0.5411083887529841  1.0000
  C   C50       1.0  0.8903281060028804  0.42551809853385697  0.04110838877743136  1.0000
  C   C51       1.0  0.390328105705849  0.07448190098548133  0.958891611173674  1.0000
  C   C52       1.0  0.10967189459118237  0.9255180988998204  0.4588916111981214  1.0000
  C   C53       1.0  0.390328105705849  0.42551809853385697  0.4588916111981214  1.0000
  C   C54       1.0  0.10967189459118237  0.5744819013514448  0.958891611173674  1.0000
  C   C55       1.0  0.6096718937131812  0.9255180988998204  0.04110838877743136  1.0000
  C   C56       1.0  0.8903281060028804  0.07448190098548133  0.5411083887529841  1.0000
  C   C57       1.0  0.9195218150236598  0.5152800258978176  0.5084371807139982  1.0000
  C   C58       1.0  0.5804781846924018  0.4847199748341094  0.008437180738445587  1.0000
  C   C59       1.0  0.08047818557040289  0.015280025531854133  0.9915628192126598  1.0000
  C   C60       1.0  0.4195218147266285  0.9847199743534476  0.49156281923710715  1.0000
  C   C61       1.0  0.08047818557040289  0.4847199748341094  0.49156281923710715  1.0000
  C   C62       1.0  0.4195218147266285  0.5152800258978176  0.9915628192126598  1.0000
  C   C63       1.0  0.9195218150236598  0.9847199743534476  0.008437180738445587  1.0000
  C   C64       1.0  0.5804781846924018  0.015280025531854133  0.5084371807139982  1.0000
  C   C65       1.0  0.6897298100823374  0.4830993953382874  0.5636532122595542  1.0000
  C   C66       1.0  0.8102701896337242  0.5169006045470145  0.0636532122840015  1.0000
  C   C67       1.0  0.31027019051172533  0.9830993948576257  0.9363467876671039  1.0000
  C   C68       1.0  0.18972980978530601  0.016900605027676145  0.4363467876915512  1.0000
  C   C69       1.0  0.31027019051172533  0.5169006045470145  0.4363467876915512  1.0000
  C   C70       1.0  0.18972980978530601  0.4830993953382874  0.9363467876671039  1.0000
  C   C71       1.0  0.6897298100823374  0.016900605027676145  0.0636532122840015  1.0000
  C   C72       1.0  0.8102701896337242  0.9830993948576257  0.5636532122595542  1.0000
  C   C73       1.0  0.6855725894804883  0.6358471946055282  0.5019591626205007  1.0000
  C   C74       1.0  0.8144274102355733  0.3641528052797737  0.0019591626449479344  1.0000
  C   C75       1.0  0.31442740993854196  0.13584719423956465  0.9980408373061574  1.0000
  C   C76       1.0  0.18557258918345687  0.8641528056457372  0.4980408373306048  1.0000
  C   C77       1.0  0.31442740993854196  0.3641528052797737  0.4980408373306048  1.0000
  C   C78       1.0  0.18557258918345687  0.6358471946055282  0.9980408373061574  1.0000
  C   C79       1.0  0.6855725894804883  0.8641528056457372  0.0019591626449479344  1.0000
  C   C80       1.0  0.8144274102355733  0.13584719423956465  0.5019591626205007  1.0000
  C   C81       1.0  0.8404801984296811  0.4546174476527632  0.5476126865593404  1.0000
  C   C82       1.0  0.659519802461413  0.5453825522325386  0.04761268658378764  1.0000
  C   C83       1.0  0.1595198021643816  0.9546174480187267  0.9523873133673177  1.0000
  C   C84       1.0  0.3404801981326498  0.04538255186657513  0.4523873133917651  1.0000
  C   C85       1.0  0.1595198021643816  0.5453825522325386  0.4523873133917651  1.0000
  C   C86       1.0  0.3404801981326498  0.4546174476527632  0.9523873133673177  1.0000
  C   C87       1.0  0.8404801984296811  0.04538255186657513  0.04761268658378764  1.0000
  C   C88       1.0  0.659519802461413  0.9546174480187267  0.5476126865593404  1.0000
  C   C89       1.0  0.83593879505202  0.6061400888076165  0.48594790116645176  1.0000
  C   C90       1.0  0.6640612058390742  0.3938599110776853  0.9859479011420045  1.0000
  C   C91       1.0  0.16406120554204284  0.10614008928827821  0.01405209919494883  1.0000
  C   C92       1.0  0.3359387947549885  0.8938599105970236  0.5140520991705015  1.0000
  C   C93       1.0  0.16406120554204284  0.3938599110776853  0.5140520991705015  1.0000
  C   C94       1.0  0.3359387947549885  0.6061400888076165  0.01405209919494883  1.0000
  C   C95       1.0  0.83593879505202  0.8938599105970236  0.9859479011420045  1.0000
  C   C96       1.0  0.6640612058390742  0.10614008928827821  0.48594790116645176  1.0000
  N   N1        1.0  0.4611401466488821  0.6067613525452001  0.5589386501390748  1.0000
  N   N2        1.0  0.038859853648149284  0.3932386473401016  0.05893864977767434  1.0000
  N   N3        1.0  0.5388598539451807  0.1067613530258619  0.941061350173431  1.0000
  N   N4        1.0  0.9611401469459135  0.8932386477060651  0.44106135019787834  1.0000
  N   N5        1.0  0.5388598539451807  0.3932386473401016  0.44106135019787834  1.0000
  N   N6        1.0  0.9611401469459135  0.6067613525452001  0.941061350173431  1.0000
  N   N7        1.0  0.4611401466488821  0.8932386477060651  0.05893864977767434  1.0000
  N   N8        1.0  0.038859853648149284  0.1067613530258619  0.5589386501390748  1.0000
  F   F1        1.0  0.43052215949242106  0.6367301137902106  0.7685728136218851  1.0000
  F   F2        1.0  0.06947784080461034  0.3632698860950912  0.2685728136463324  1.0000
  F   F3        1.0  0.569477839926609  0.13673011427087226  0.7314271863047729  1.0000
  F   F4        1.0  0.9305221597894524  0.8632698856144295  0.23142718632922027  1.0000
  F   F5        1.0  0.569477839926609  0.3632698860950912  0.23142718632922027  1.0000
  F   F6        1.0  0.9305221597894524  0.6367301137902106  0.7314271863047729  1.0000
  F   F7        1.0  0.43052215949242106  0.8632698856144295  0.2685728136463324  1.0000
  F   F8        1.0  0.06947784080461034  0.13673011427087226  0.7685728136218851  1.0000
  F   F9        1.0  0.6943489524401792  0.9097063072278105  0.8715250323953864  1.0000
  F   F10       1.0  0.8056510472758823  0.09029369265749132  0.37152503241983376  1.0000
  F   F11       1.0  0.3056510481538835  0.40970630770847216  0.6284749679171195  1.0000
  F   F12       1.0  0.19434895214314785  0.5902936921768296  0.128474967555719  1.0000
  F   F13       1.0  0.3056510481538835  0.09029369265749132  0.128474967555719  1.0000
  F   F14       1.0  0.19434895214314785  0.9097063072278105  0.6284749679171195  1.0000
  F   F15       1.0  0.6943489524401792  0.5902936921768296  0.37152503241983376  1.0000
  F   F16       1.0  0.8056510472758823  0.40970630770847216  0.8715250323953864  1.0000
  F   F17       1.0  0.7267346973797091  0.9305046138571573  0.6901383229719388  1.0000
  F   F18       1.0  0.7732653023363525  0.0694953860281445  0.19013832299638608  1.0000
  F   F19       1.0  0.2732653020393211  0.430504614337819  0.8098616769547192  1.0000
  F   F20       1.0  0.22673469825771028  0.569495386394108  0.3098616769791666  1.0000
  F   F21       1.0  0.2732653020393211  0.0694953860281445  0.3098616769791666  1.0000
  F   F22       1.0  0.22673469825771028  0.9305046138571573  0.8098616769547192  1.0000
  F   F23       1.0  0.7267346973797091  0.569495386394108  0.19013832299638608  1.0000
  F   F24       1.0  0.7732653023363525  0.430504614337819  0.6901383229719388  1.0000
  F   F25       1.0  0.800803974449057  0.012555186850060008  0.7852345169721928  1.0000
  F   F26       1.0  0.699196026442037  0.987444813881867  0.2852345169966402  1.0000
  F   F27       1.0  0.19919602614500567  0.5125551863693982  0.7147654829544652  1.0000
  F   F28       1.0  0.3008039741520257  0.4874448135159035  0.21476548297891254  1.0000
  F   F29       1.0  0.19919602614500567  0.987444813881867  0.21476548297891254  1.0000
  F   F30       1.0  0.3008039741520257  0.012555186850060008  0.7147654829544652  1.0000
  F   F31       1.0  0.800803974449057  0.4874448135159035  0.2852345169966402  1.0000
  F   F32       1.0  0.699196026442037  0.5125551863693982  0.7852345169721928  1.0000
  I   I1        1.0  0.5207850998284574  0.7135859137625121  0.6545531188623294  1.0000
  I   I2        1.0  0.9792148998876041  0.2864140861227898  0.15455311888677678  1.0000
  I   I3        1.0  0.47921489959057273  0.21358591424317377  0.8454468810643286  1.0000
  I   I4        1.0  0.020785099531426092  0.7864140856421281  0.3454468810887759  1.0000
  I   I5        1.0  0.47921489959057273  0.2864140861227898  0.3454468810887759  1.0000
  I   I6        1.0  0.020785099531426092  0.7135859137625121  0.8454468810643286  1.0000
  I   I7        1.0  0.5207850998284574  0.7864140856421281  0.15455311888677678  1.0000
  I   I8        1.0  0.9792148998876041  0.21358591424317377  0.6545531188623294  1.0000
  I   I9        1.0  0.5026226201296922  0.6761047947471547  0.8875609348663726  1.0000
  I   I10       1.0  0.9973773795863695  0.3238952051381471  0.38756093489081983  1.0000
  I   I11       1.0  0.49737737928933795  0.17610479438119117  0.6124390650602856  1.0000
  I   I12       1.0  0.002622621007693368  0.8238952055041106  0.11243906508473288  1.0000
  I   I13       1.0  0.49737737928933795  0.3238952051381471  0.11243906508473288  1.0000
  I   I14       1.0  0.002622621007693368  0.6761047947471547  0.6124390650602856  1.0000
  I   I15       1.0  0.5026226201296922  0.8238952055041106  0.38756093489081983  1.0000
  I   I16       1.0  0.9973773795863695  0.17610479438119117  0.8875609348663726  1.0000
