data_image0
_chemical_formula_structural       H18B2C18N12O6
_chemical_formula_sum              "H18 B2 C18 N12 O6"
_cell_length_a       10.051641733020537
_cell_length_b       10.05153966190791
_cell_length_c       6.314308857708847
_cell_angle_alpha    90.00330633757291
_cell_angle_beta     89.99685575161482
_cell_angle_gamma    119.99685005649594

_space_group_name_H-M_alt    "P 1"
_space_group_IT_number       1

loop_
  _space_group_symop_operation_xyz
  'x, y, z'

loop_
  _atom_site_type_symbol
  _atom_site_label
  _atom_site_symmetry_multiplicity
  _atom_site_fract_x
  _atom_site_fract_y
  _atom_site_fract_z
  _atom_site_occupancy
  H   H1        1.0  0.862682694566168  0.325514243356586  0.24960795145571826  1.0000
  H   H2        1.0  0.6744870928902401  0.5371111281731303  0.2496009568952602  1.0000
  H   H3        1.0  0.46289235821503305  0.13732255147699146  0.24959938349762031  1.0000
  H   H4        1.0  0.13731730556486385  0.6744857564021579  0.7503920482818084  1.0000
  H   H5        1.0  0.32551290724077464  0.4628888715856338  0.7503990444259712  1.0000
  H   H6        1.0  0.5371076419159988  0.8626774482817525  0.7504006162399065  1.0000
  H   H7        1.0  0.3468861587800081  0.3246443478571427  0.24990835534304986  1.0000
  H   H8        1.0  0.6753552871649539  0.02222565110836353  0.24990847615690853  1.0000
  H   H9        1.0  0.9777773727715048  0.6531327779811312  0.24990941480356677  1.0000
  H   H10       1.0  0.6531138413510238  0.6753556519016013  0.7500916443944767  1.0000
  H   H11       1.0  0.324644712966078  0.9777743486503804  0.750091523580618  1.0000
  H   H12       1.0  0.022222627359526997  0.34686722177761276  0.75009058493396  1.0000
  H   H13       1.0  0.024969775892788423  0.1749337788199278  0.24955346663446898  1.0000
  H   H14       1.0  0.8250630633267846  0.8500088932021103  0.24955353691517856  1.0000
  H   H15       1.0  0.1499729464476679  0.9750457639428002  0.24955378141389414  1.0000
  H   H16       1.0  0.9750302242382435  0.8250662209388162  0.7504465331030578  1.0000
  H   H17       1.0  0.1749369373785714  0.14999110770539703  0.7504464644060805  1.0000
  H   H18       1.0  0.8500270536833466  0.024954235815963698  0.7504462199073372  1.0000
  B   B1        1.0  0.6666839529511026  0.33331837263815556  0.24959856264192842  1.0000
  B   B2        1.0  0.33331604618508437  0.6666816271206234  0.7504014370956418  1.0000
  C   C1        1.0  0.26571537470943424  0.36649765907471876  0.24991859061563218  1.0000
  C   C2        1.0  0.6334949471143971  0.8991981132732236  0.2499181880885473  1.0000
  C   C3        1.0  0.10079621553805948  0.7342943718404625  0.249918105462986  1.0000
  C   C4        1.0  0.7342846254215976  0.6335023406840251  0.7500814091218945  1.0000
  C   C5        1.0  0.36650505301663466  0.10080188648552024  0.7500818116489795  1.0000
  C   C6        1.0  0.8992037845929725  0.2657056279182815  0.7500818942745405  1.0000
  C   C7        1.0  0.1084128976998805  0.2966802373893099  0.24982999357436564  1.0000
  C   C8        1.0  0.7033190056029938  0.8117139960087021  0.24982968834133662  1.0000
  C   C9        1.0  0.1882693607485914  0.8915934929376499  0.2498310816195486  1.0000
  C   C10       1.0  0.8915871024311514  0.7033197623694339  0.7501700061631611  1.0000
  C   C11       1.0  0.29668099452803803  0.18828600375004184  0.7501703113961901  1.0000
  C   C12       1.0  0.8117306389619369  0.10840650796987238  0.7501689181180494  1.0000
  C   C13       1.0  0.18647865230653035  0.5377278098146226  0.2500725601881045  1.0000
  C   C14       1.0  0.4622773863544305  0.6487382962592456  0.25007286983288923  1.0000
  C   C15       1.0  0.3512514476756444  0.8135185976284445  0.25007126211629543  1.0000
  C   C16       1.0  0.8135213474039981  0.4622721910928996  0.7499274395494935  1.0000
  C   C17       1.0  0.5377226137766014  0.3512617034994984  0.7499271299046375  1.0000
  C   C18       1.0  0.6487485524553873  0.18648140213029937  0.7499287376212314  1.0000
  N   N1        1.0  0.31607414627085584  0.5229826997987005  0.25012215748121513  1.0000
  N   N2        1.0  0.47701188592313604  0.7930728973472231  0.2501214980279954  1.0000
  N   N3        1.0  0.2069202092046562  0.6839300998495718  0.25012076786119414  1.0000
  N   N4        1.0  0.6839258544345175  0.4770173011087868  0.7498778422563394  1.0000
  N   N5        1.0  0.5229881147822373  0.20692710356026417  0.749878501709559  1.0000
  N   N6        1.0  0.7930797909263755  0.3160698999091721  0.7498792318763327  1.0000
  N   N7        1.0  0.05950683955536056  0.4037112199290105  0.24987316774331525  1.0000
  N   N8        1.0  0.5962986289298349  0.6557788284593193  0.2498726382894408  1.0000
  N   N9        1.0  0.3441995531974506  0.9404931774187991  0.24987218720725618  1.0000
  N   N10       1.0  0.9404931595808264  0.5962887798297684  0.750126831994255  1.0000
  N   N11       1.0  0.403701371201197  0.34422117129942453  0.7501273614480859  1.0000
  N   N12       1.0  0.655800446933564  0.05950682233996483  0.750127814113975  1.0000
  O   O1        1.0  0.748037313150482  0.2566201737808891  0.24937967311171275  1.0000
  O   O2        1.0  0.7433844771643171  0.4913598968600929  0.24936810517845215  1.0000
  O   O3        1.0  0.5086434957959339  0.2519709577586733  0.24936446272110044  1.0000
  O   O4        1.0  0.2519626859857048  0.7433798259778898  0.7506203266258575  1.0000
  O   O5        1.0  0.25661552296669754  0.508640102898671  0.750631896142779  1.0000
  O   O6        1.0  0.49135650433509775  0.7480290420000706  0.7506355370164262  1.0000
