data_image0
_chemical_formula_structural       H40C40N8F72S16
_chemical_formula_sum              "H40 C40 N8 F72 S16"
_cell_length_a       16.421182745496008
_cell_length_b       16.421182745496008
_cell_length_c       7.955419078887355
_cell_angle_alpha    90.0
_cell_angle_beta     90.0
_cell_angle_gamma    90.0

_space_group_name_H-M_alt    "P 1"
_space_group_IT_number       1

loop_
  _space_group_symop_operation_xyz
  'x, y, z'

loop_
  _atom_site_type_symbol
  _atom_site_label
  _atom_site_symmetry_multiplicity
  _atom_site_fract_x
  _atom_site_fract_y
  _atom_site_fract_z
  _atom_site_occupancy
  H   H1        1.0  0.789693614703653  0.3171861290824867  0.4671987714467239  1.0000
  H   H2        1.0  0.21030638496165682  0.6828138711917927  0.4671987714467239  1.0000
  H   H3        1.0  0.3171861290824867  0.21030638496165682  0.5328012286931362  1.0000
  H   H4        1.0  0.6828138711917927  0.789693614703653  0.5328012286931362  1.0000
  H   H5        1.0  0.7103063854032813  0.8171861289151416  0.03280122862320612  1.0000
  H   H6        1.0  0.2896936148709981  0.18281387135913776  0.03280122862320612  1.0000
  H   H7        1.0  0.18281387135913776  0.7103063854032813  0.9671987715166539  1.0000
  H   H8        1.0  0.8171861289151416  0.2896936148709981  0.9671987715166539  1.0000
  H   H9        1.0  0.7608304184682906  0.45023245064536194  0.5503887144827054  1.0000
  H   H10       1.0  0.23916958180598885  0.549767549019948  0.5503887144827054  1.0000
  H   H11       1.0  0.45023245064536194  0.23916958180598885  0.4496112856571545  1.0000
  H   H12       1.0  0.549767549019948  0.7608304184682906  0.4496112856571545  1.0000
  H   H13       1.0  0.7391695816386438  0.9502324504780169  0.9496112844700797  1.0000
  H   H14       1.0  0.2608304180266661  0.049767549187293016  0.9496112844700797  1.0000
  H   H15       1.0  0.049767549187293016  0.7391695816386438  0.05038871441277545  1.0000
  H   H16       1.0  0.9502324504780169  0.2608304180266661  0.05038871441277545  1.0000
  H   H17       1.0  0.8708377448586794  0.5553519135216555  0.5738134150738481  1.0000
  H   H18       1.0  0.12916225480663052  0.44464808614365436  0.5738134150738481  1.0000
  H   H19       1.0  0.5553519135216555  0.12916225480663052  0.4261865850660119  1.0000
  H   H20       1.0  0.44464808614365436  0.8708377448586794  0.4261865850660119  1.0000
  H   H21       1.0  0.629162255248255  0.05535191368900054  0.926186585135942  1.0000
  H   H22       1.0  0.3708377450260244  0.9446480859763092  0.926186585135942  1.0000
  H   H23       1.0  0.9446480859763092  0.629162255248255  0.07381341500391808  1.0000
  H   H24       1.0  0.05535191368900054  0.3708377450260244  0.07381341500391808  1.0000
  H   H25       1.0  0.04308744266268308  0.3672654310880354  0.43236630350856015  1.0000
  H   H26       1.0  0.9569125576115962  0.6327345685772745  0.43236630350856015  1.0000
  H   H27       1.0  0.3672654310880354  0.9569125576115962  0.5676336966312999  1.0000
  H   H28       1.0  0.6327345685772745  0.04308744266268308  0.5676336966312999  1.0000
  H   H29       1.0  0.45691255777894135  0.8672654315296598  0.06763369656136987  1.0000
  H   H30       1.0  0.543087442495338  0.13273456874461953  0.06763369656136987  1.0000
  H   H31       1.0  0.13273456874461953  0.45691255777894135  0.9323663035784902  1.0000
  H   H32       1.0  0.8672654315296598  0.543087442495338  0.9323663035784902  1.0000
  H   H33       1.0  0.9257001536122206  0.270109543188451  0.41844367304727575  1.0000
  H   H34       1.0  0.07429984666205885  0.7298904570858284  0.41844367304727575  1.0000
  H   H35       1.0  0.270109543188451  0.07429984666205885  0.5815563270925842  1.0000
  H   H36       1.0  0.7298904570858284  0.9257001536122206  0.5815563270925842  1.0000
  H   H37       1.0  0.5742998464947138  0.7701095430211059  0.08155632702265427  1.0000
  H   H38       1.0  0.42570015317059606  0.22989045725317347  0.08155632702265427  1.0000
  H   H39       1.0  0.22989045725317347  0.5742998464947138  0.9184436731172058  1.0000
  H   H40       1.0  0.7701095430211059  0.42570015317059606  0.9184436731172058  1.0000
  C   C1        1.0  0.8243682851476059  0.43609470468649203  0.525989176497945  1.0000
  C   C2        1.0  0.17563171512667344  0.5639052955877873  0.525989176497945  1.0000
  C   C3        1.0  0.43609470468649203  0.17563171512667344  0.474010823641915  1.0000
  C   C4        1.0  0.5639052955877873  0.8243682851476059  0.474010823641915  1.0000
  C   C5        1.0  0.6756317149593284  0.9360947045191469  0.974010823711845  1.0000
  C   C6        1.0  0.324368285314951  0.06390529575513243  0.974010823711845  1.0000
  C   C7        1.0  0.06390529575513243  0.6756317149593284  0.025989176428014994  1.0000
  C   C8        1.0  0.9360947045191469  0.324368285314951  0.025989176428014994  1.0000
  C   C9        1.0  0.8859719172171329  0.4933320848781105  0.5375318657126084  1.0000
  C   C10       1.0  0.11402808244817697  0.5066679153961688  0.5375318657126084  1.0000
  C   C11       1.0  0.4933320848781105  0.11402808244817697  0.4624681344272517  1.0000
  C   C12       1.0  0.5066679153961688  0.8859719172171329  0.4624681344272517  1.0000
  C   C13       1.0  0.6140280822808319  0.9933320847107654  0.9624681344971817  1.0000
  C   C14       1.0  0.3859719173844779  0.006667914954544442  0.9624681344971817  1.0000
  C   C15       1.0  0.006667914954544442  0.6140280822808319  0.03753186564267833  1.0000
  C   C16       1.0  0.9933320847107654  0.3859719173844779  0.03753186564267833  1.0000
  C   C17       1.0  0.9665373746816913  0.46989963022708725  0.5035059109117634  1.0000
  C   C18       1.0  0.03346262559258805  0.5301003694382225  0.5035059109117634  1.0000
  C   C19       1.0  0.46989963022708725  0.03346262559258805  0.49649408797109174  1.0000
  C   C20       1.0  0.5301003694382225  0.9665373746816913  0.49649408797109174  1.0000
  C   C21       1.0  0.533462625425243  0.9698996306687118  0.9964940880410218  1.0000
  C   C22       1.0  0.4665373748490364  0.03010036960556765  0.9964940880410218  1.0000
  C   C23       1.0  0.03010036960556765  0.533462625425243  0.003505910841833468  1.0000
  C   C24       1.0  0.9698996306687118  0.4665373748490364  0.003505910841833468  1.0000
  C   C25       1.0  0.9820286473837002  0.3881313854660159  0.46279875183079994  1.0000
  C   C26       1.0  0.017971352281609728  0.6118686141992941  0.46279875183079994  1.0000
  C   C27       1.0  0.3881313854660159  0.017971352281609728  0.5372012470520553  1.0000
  C   C28       1.0  0.6118686141992941  0.9820286473837002  0.5372012470520553  1.0000
  C   C29       1.0  0.5179713527232341  0.8881313859076404  0.037201248239130076  1.0000
  C   C30       1.0  0.4820286475510452  0.11186861436663906  0.037201248239130076  1.0000
  C   C31       1.0  0.11186861436663906  0.5179713527232341  0.9627987519007299  1.0000
  C   C32       1.0  0.8881313859076404  0.4820286475510452  0.9627987519007299  1.0000
  C   C33       1.0  0.91791405001776  0.3336502306146467  0.4526320642939176  1.0000
  C   C34       1.0  0.08208594964754987  0.6663497696596328  0.4526320642939176  1.0000
  C   C35       1.0  0.3336502306146467  0.08208594964754987  0.5473679358459425  1.0000
  C   C36       1.0  0.6663497696596328  0.91791405001776  0.5473679358459425  1.0000
  C   C37       1.0  0.5820859500891743  0.8336502304473017  0.04736793577601241  1.0000
  C   C38       1.0  0.4179140501851051  0.16634976982697777  0.04736793577601241  1.0000
  C   C39       1.0  0.16634976982697777  0.5820859500891743  0.9526320643638476  1.0000
  C   C40       1.0  0.8336502304473017  0.4179140501851051  0.9526320643638476  1.0000
  N   N1        1.0  0.8413004765926018  0.35872418700265  0.482877374768957  1.0000
  N   N2        1.0  0.15869952368167764  0.6412758126626599  0.482877374768957  1.0000
  N   N3        1.0  0.35872418700265  0.15869952368167764  0.517122625370903  1.0000
  N   N4        1.0  0.6412758126626599  0.8413004765926018  0.517122625370903  1.0000
  N   N5        1.0  0.6586995235143325  0.8587241874442745  0.017122625300973006  1.0000
  N   N6        1.0  0.3413004761509773  0.1412758128300049  0.017122625300973006  1.0000
  N   N7        1.0  0.1412758128300049  0.6586995235143325  0.9828773748388869  1.0000
  N   N8        1.0  0.8587241874442745  0.3413004761509773  0.9828773748388869  1.0000
  F   F1        1.0  0.6049715001633964  0.39960790533190005  0.40284275639294426  1.0000
  F   F2        1.0  0.395028500110883  0.6003920943334097  0.40284275639294426  1.0000
  F   F3        1.0  0.39960790533190005  0.395028500110883  0.5971572437469157  1.0000
  F   F4        1.0  0.6003920943334097  0.6049715001633964  0.5971572437469157  1.0000
  F   F5        1.0  0.895028499943538  0.8996079057735246  0.09715724367698571  1.0000
  F   F6        1.0  0.10497150033074144  0.10039209450075484  0.09715724367698571  1.0000
  F   F7        1.0  0.10039209450075484  0.895028499943538  0.9028427564628743  1.0000
  F   F8        1.0  0.8996079057735246  0.10497150033074144  0.9028427564628743  1.0000
  F   F9        1.0  0.5754329287025166  0.40641723762744797  0.110061530551381  1.0000
  F   F10       1.0  0.4245670715717628  0.5935827626468314  0.110061530551381  1.0000
  F   F11       1.0  0.40641723762744797  0.4245670715717628  0.889938469588479  1.0000
  F   F12       1.0  0.5935827626468314  0.5754329287025166  0.889938469588479  1.0000
  F   F13       1.0  0.9245670714044177  0.9064172374601029  0.389938469518549  1.0000
  F   F14       1.0  0.07543292886986165  0.09358276281417646  0.389938469518549  1.0000
  F   F15       1.0  0.09358276281417646  0.9245670714044177  0.6100615306213111  1.0000
  F   F16       1.0  0.9064172374601029  0.07543292886986165  0.6100615306213111  1.0000
  F   F17       1.0  0.7074761221560893  0.416792443399196  0.21066220313240772  1.0000
  F   F18       1.0  0.2925238781181901  0.5832075568750833  0.21066220313240772  1.0000
  F   F19       1.0  0.416792443399196  0.2925238781181901  0.7893377970074522  1.0000
  F   F20       1.0  0.5832075568750833  0.7074761221560893  0.7893377970074522  1.0000
  F   F21       1.0  0.792523877950845  0.9167924432318509  0.28933779693752226  1.0000
  F   F22       1.0  0.20747612232343438  0.08320755643345887  0.28933779693752226  1.0000
  F   F23       1.0  0.08320755643345887  0.792523877950845  0.7106622032023377  1.0000
  F   F24       1.0  0.9167924432318509  0.20747612232343438  0.7106622032023377  1.0000
  F   F25       1.0  0.540509818784792  0.293499498464684  0.2690336132863209  1.0000
  F   F26       1.0  0.45949018088051785  0.7065005018095954  0.2690336132863209  1.0000
  F   F27       1.0  0.293499498464684  0.45949018088051785  0.7309663868535391  1.0000
  F   F28       1.0  0.7065005018095954  0.540509818784792  0.7309663868535391  1.0000
  F   F29       1.0  0.9594901813221424  0.7934994982973389  0.2309663867836091  1.0000
  F   F30       1.0  0.040509818952137046  0.206500501367971  0.2309663867836091  1.0000
  F   F31       1.0  0.206500501367971  0.9594901813221424  0.769033613356251  1.0000
  F   F32       1.0  0.7934994982973389  0.040509818952137046  0.769033613356251  1.0000
  F   F33       1.0  0.6500933200398136  0.12834121711349006  0.22518973824450694  1.0000
  F   F34       1.0  0.34990668023446586  0.8716587831607893  0.22518973824450694  1.0000
  F   F35       1.0  0.12834121711349006  0.34990668023446586  0.7748102618953531  1.0000
  F   F36       1.0  0.8716587831607893  0.6500933200398136  0.7748102618953531  1.0000
  F   F37       1.0  0.8499066800671208  0.628341216946145  0.27481026182542306  1.0000
  F   F38       1.0  0.15009331959818906  0.3716587833281344  0.27481026182542306  1.0000
  F   F39       1.0  0.3716587833281344  0.8499066800671208  0.7251897383144369  1.0000
  F   F40       1.0  0.628341216946145  0.15009331959818906  0.7251897383144369  1.0000
  F   F41       1.0  0.7759783279614862  0.07874738318436152  0.13940500544379975  1.0000
  F   F42       1.0  0.22402167231279316  0.9212526170899179  0.13940500544379975  1.0000
  F   F43       1.0  0.07874738318436152  0.22402167231279316  0.8605949934390555  1.0000
  F   F44       1.0  0.9212526170899179  0.7759783279614862  0.8605949934390555  1.0000
  F   F45       1.0  0.7240216721454481  0.5787473830170164  0.3605949933691255  1.0000
  F   F46       1.0  0.27597832751986173  0.4212526166482934  0.3605949933691255  1.0000
  F   F47       1.0  0.4212526166482934  0.7240216721454481  0.6394050055137297  1.0000
  F   F48       1.0  0.5787473830170164  0.27597832751986173  0.6394050055137297  1.0000
  F   F49       1.0  0.8546886724008665  0.17593595813263904  0.2744140111730387  1.0000
  F   F50       1.0  0.1453113272644433  0.8240640421416403  0.2744140111730387  1.0000
  F   F51       1.0  0.17593595813263904  0.1453113272644433  0.7255859889668212  1.0000
  F   F52       1.0  0.8240640421416403  0.8546886724008665  0.7255859889668212  1.0000
  F   F53       1.0  0.6453113277060677  0.6759359579652939  0.2255859888968913  1.0000
  F   F54       1.0  0.3546886725682116  0.3240640423089854  0.2255859888968913  1.0000
  F   F55       1.0  0.3240640423089854  0.6453113277060677  0.7744140112429687  1.0000
  F   F56       1.0  0.6759359579652939  0.3546886725682116  0.7744140112429687  1.0000
  F   F57       1.0  0.7522280862130974  0.11167982711251448  0.4221479304481469  1.0000
  F   F58       1.0  0.24777191345221236  0.8883201725527954  0.4221479304481469  1.0000
  F   F59       1.0  0.11167982711251448  0.24777191345221236  0.5778520696917131  1.0000
  F   F60       1.0  0.8883201725527954  0.7522280862130974  0.5778520696917131  1.0000
  F   F61       1.0  0.7477719132848673  0.6116798275541389  0.07785206962178311  1.0000
  F   F62       1.0  0.25222808638044253  0.38832017272014047  0.07785206962178311  1.0000
  F   F63       1.0  0.38832017272014047  0.7477719132848673  0.922147930518077  1.0000
  F   F64       1.0  0.6116798275541389  0.25222808638044253  0.922147930518077  1.0000
  F   F65       1.0  0.7170453604037484  0.27053310464001007  0.4417562123567622  1.0000
  F   F66       1.0  0.28295463987053093  0.7294668956342694  0.4417562123567622  1.0000
  F   F67       1.0  0.27053310464001007  0.28295463987053093  0.5582437877830978  1.0000
  F   F68       1.0  0.7294668956342694  0.7170453604037484  0.5582437877830978  1.0000
  F   F69       1.0  0.7829546397031858  0.770533104472665  0.0582437877131678  1.0000
  F   F70       1.0  0.2170453605710935  0.22946689519264482  0.0582437877131678  1.0000
  F   F71       1.0  0.22946689519264482  0.7829546397031858  0.9417562124266922  1.0000
  F   F72       1.0  0.770533104472665  0.2170453605710935  0.9417562124266922  1.0000
  S   S1        1.0  0.62657493917861  0.3514426012695641  0.23676459546910947  1.0000
  S   S2        1.0  0.3734250610956695  0.6485573983957457  0.23676459546910947  1.0000
  S   S3        1.0  0.3514426012695641  0.3734250610956695  0.7632354046707506  1.0000
  S   S4        1.0  0.6485573983957457  0.62657493917861  0.7632354046707506  1.0000
  S   S5        1.0  0.8734250609283244  0.851442601102219  0.2632354046008205  1.0000
  S   S6        1.0  0.126574939345955  0.1485573985630908  0.2632354046008205  1.0000
  S   S7        1.0  0.1485573985630908  0.8734250609283244  0.7367645955390394  1.0000
  S   S8        1.0  0.851442601102219  0.126574939345955  0.7367645955390394  1.0000
  S   S9        1.0  0.7526433553265156  0.15760973250905894  0.2446880950830124  1.0000
  S   S10       1.0  0.24735664494776372  0.8423902677652204  0.2446880950830124  1.0000
  S   S11       1.0  0.15760973250905894  0.24735664494776372  0.7553119050568476  1.0000
  S   S12       1.0  0.8423902677652204  0.7526433553265156  0.7553119050568476  1.0000
  S   S13       1.0  0.7473566447804186  0.6576097323417139  0.25531190498691764  1.0000
  S   S14       1.0  0.2526433548848912  0.342390267323596  0.25531190498691764  1.0000
  S   S15       1.0  0.342390267323596  0.7473566447804186  0.7446880951529424  1.0000
  S   S16       1.0  0.6576097323417139  0.2526433548848912  0.7446880951529424  1.0000
