data_image0
_chemical_formula_structural       H36C40N8F36S8
_chemical_formula_sum              "H36 C40 N8 F36 S8"
_cell_length_a       7.37715819725964
_cell_length_b       10.466468448984072
_cell_length_c       18.25847913960159
_cell_angle_alpha    90.0
_cell_angle_beta     90.0
_cell_angle_gamma    90.0

_space_group_name_H-M_alt    "P 1"
_space_group_IT_number       1

loop_
  _space_group_symop_operation_xyz
  'x, y, z'

loop_
  _atom_site_type_symbol
  _atom_site_label
  _atom_site_symmetry_multiplicity
  _atom_site_fract_x
  _atom_site_fract_y
  _atom_site_fract_z
  _atom_site_occupancy
  H   H1        1.0  0.8894517569702407  0.6314382661366066  0.3133467561156816  1.0000
  H   H2        1.0  0.6105482435869577  0.3685617339604585  0.8133467561265919  1.0000
  H   H3        1.0  0.11054824340122488  0.13143826561035798  0.18665324389522864  1.0000
  H   H4        1.0  0.3894517567845079  0.8685617344867071  0.6866532439061389  1.0000
  H   H5        1.0  0.8967021044034662  0.5581013976655126  0.442734489449727  1.0000
  H   H6        1.0  0.6032978947981966  0.4418986024315525  0.9427344894606372  1.0000
  H   H7        1.0  0.10329789461246383  0.058101397139263995  0.05726551056118331  1.0000
  H   H8        1.0  0.3967021042177334  0.9418986029578011  0.5572655105720935  1.0000
  H   H9        1.0  0.7887357373143252  0.9502151292459444  0.5066331565336415  1.0000
  H   H10       1.0  0.7112642632428732  0.04978487085112055  0.006633156522731209  1.0000
  H   H11       1.0  0.21126426305714036  0.45021512871969593  0.9933668434990892  1.0000
  H   H12       1.0  0.2887357371285924  0.549784870421937  0.49336684348817905  1.0000
  H   H13       1.0  0.7901175309166077  0.00656595491927084  0.3743674545802916  1.0000
  H   H14       1.0  0.709882468285055  0.9934340451777942  0.8743674545912018  1.0000
  H   H15       1.0  0.20988246945485778  0.5065659544900873  0.12563254543061866  1.0000
  H   H16       1.0  0.290117530730875  0.4934340456069778  0.6256325448938381  1.0000
  H   H17       1.0  0.8867769356539064  0.6089321446928578  0.765330193339691  1.0000
  H   H18       1.0  0.6132230649032919  0.39106785540420724  0.2653301933287808  1.0000
  H   H19       1.0  0.11322306471755912  0.10893214416660925  0.7346698066930398  1.0000
  H   H20       1.0  0.3867769354681736  0.8910678559304558  0.23466980668212953  1.0000
  H   H21       1.0  0.7765940226316616  0.4584612635473777  0.6789814696620188  1.0000
  H   H22       1.0  0.7234059779255368  0.5415387365496874  0.17898146965110853  1.0000
  H   H23       1.0  0.22340597773980403  0.9584612631181942  0.8210185303707119  1.0000
  H   H24       1.0  0.2765940224459288  0.04153873697887088  0.3210185303598017  1.0000
  H   H25       1.0  0.7482583892603113  0.5169633985305901  0.5471676010698664  1.0000
  H   H26       1.0  0.751741611296887  0.483036601566475  0.04716760105895611  1.0000
  H   H27       1.0  0.25174161111115423  0.01696339800434153  0.9528323989628644  1.0000
  H   H28       1.0  0.24825838907457853  0.9830366020927236  0.45283239895195415  1.0000
  H   H29       1.0  0.9475173668631017  0.8951498201773501  0.605426119858152  1.0000
  H   H30       1.0  0.5524826336940967  0.10485017991971497  0.1054261198472417  1.0000
  H   H31       1.0  0.05248263350836387  0.39514982060653364  0.8945738801745788  1.0000
  H   H32       1.0  0.44751736667736886  0.6048501794905315  0.39457388016366857  1.0000
  H   H33       1.0  0.9602171202769301  0.8198187279523952  0.7347733733694065  1.0000
  H   H34       1.0  0.5397828789247328  0.1801812711892378  0.23477337335849624  1.0000
  H   H35       1.0  0.03978288009453551  0.3198187283815787  0.7652266266633243  1.0000
  H   H36       1.0  0.46021712009119725  0.6801812717154864  0.265226626652414  1.0000
  C   C1        1.0  0.8670047827327202  0.6981974966646289  0.35810859929830247  1.0000
  C   C2        1.0  0.6329952178244781  0.3018025034324362  0.8581085993092127  1.0000
  C   C3        1.0  0.13299521763874533  0.19819749709381246  0.1418914007126078  1.0000
  C   C4        1.0  0.36700478254698743  0.8018025030032526  0.641891400723518  1.0000
  C   C5        1.0  0.8702226098912618  0.6582198841547843  0.4307023953021093  1.0000
  C   C6        1.0  0.6297773906659364  0.3417801159422808  0.9307023953130195  1.0000
  C   C7        1.0  0.1297773904802037  0.15821988458396777  0.069297604708801  1.0000
  C   C8        1.0  0.37022260970552906  0.8417801155130974  0.5692976047197112  1.0000
  C   C9        1.0  0.8424242999572038  0.7485055487613329  0.48648885222506116  1.0000
  C   C10       1.0  0.6575757005999945  0.2514944513357321  0.9864888522359715  1.0000
  C   C11       1.0  0.15757570041426172  0.2485055491905165  0.013511147785849099  1.0000
  C   C12       1.0  0.34242429977147104  0.7514944509065486  0.5135111477967594  1.0000
  C   C13       1.0  0.8118591156449358  0.875914008118934  0.46607961840274564  1.0000
  C   C14       1.0  0.688140883556727  0.12408599197813112  0.9660796184136557  1.0000
  C   C15       1.0  0.18814088472652976  0.37591400854811746  0.033920381608164664  1.0000
  C   C16       1.0  0.311859115459203  0.6240859915489476  0.5339203816190748  1.0000
  C   C17       1.0  0.8119070514476587  0.908397781576733  0.39222705928815205  1.0000
  C   C18       1.0  0.688092947754004  0.09160221852033207  0.8922270592990623  1.0000
  C   C19       1.0  0.18809294756827127  0.40839778105048435  0.10777294072275824  1.0000
  C   C20       1.0  0.311907051261926  0.5916022190465807  0.6077729407336685  1.0000
  C   C21       1.0  0.8125859348152217  0.5529366364794941  0.6590398777464972  1.0000
  C   C22       1.0  0.6874140643864411  0.44706336361757093  0.15903987773558687  1.0000
  C   C23       1.0  0.18741406420070836  0.05293663595324551  0.8409601222862337  1.0000
  C   C24       1.0  0.31258593598502443  0.9470633631883875  0.3409601222753234  1.0000
  C   C25       1.0  0.7994744239307282  0.5869509108964353  0.5861016006962729  1.0000
  C   C26       1.0  0.7005255766264701  0.4130490892006298  0.08610160068536264  1.0000
  C   C27       1.0  0.20052557644073732  0.0869509113256187  0.9138983993364579  1.0000
  C   C28       1.0  0.29947442374499544  0.9130490887714463  0.4138983993255476  1.0000
  C   C29       1.0  0.848488941490392  0.7109927170059274  0.5643232336723983  1.0000
  C   C30       1.0  0.6515110577112708  0.28900728309113766  0.06432323366148814  1.0000
  C   C31       1.0  0.15151105752553806  0.21099271647967882  0.9356767663603323  1.0000
  C   C32       1.0  0.3484889426601947  0.7890072826619542  0.4356767663494221  1.0000
  C   C33       1.0  0.9058602948873162  0.797869185838952  0.6181051742432397  1.0000
  C   C34       1.0  0.5941397043143465  0.20213081425811305  0.11810517423232952  1.0000
  C   C35       1.0  0.09413970412861374  0.2978691853127034  0.8818948257894911  1.0000
  C   C36       1.0  0.4058602947015835  0.7021308147843617  0.38189482577858075  1.0000
  C   C37       1.0  0.9163228995836167  0.7584380117030324  0.6902457473944349  1.0000
  C   C38       1.0  0.5836771009735816  0.24156198839403273  0.1902457473835247  1.0000
  C   C39       1.0  0.08367710078784882  0.25843801213221584  0.8097542526382958  1.0000
  C   C40       1.0  0.41632289939788397  0.7415619879648493  0.30975425262738554  1.0000
  N   N1        1.0  0.8390715915919165  0.8206779576002783  0.33980526157532864  1.0000
  N   N2        1.0  0.6609284076097462  0.17932204249678682  0.8398052615862389  1.0000
  N   N3        1.0  0.16092840742401346  0.32067795802946175  0.1601947384355816  1.0000
  N   N4        1.0  0.3390715914061838  0.6793220420676034  0.6601947384464918  1.0000
  N   N5        1.0  0.8716729190365876  0.6381190152680662  0.7089082979494225  1.0000
  N   N6        1.0  0.6283270815206108  0.3618809848289989  0.20890829793851226  1.0000
  N   N7        1.0  0.12832708133487802  0.13811901474181762  0.7910917020833083  1.0000
  N   N8        1.0  0.3716729188508548  0.8618809853552475  0.291091702072398  1.0000
  F   F1        1.0  0.02881458067131627  0.8497343811190937  0.21910304683171397  1.0000
  F   F2        1.0  0.4711854195144165  0.15026561897797142  0.7191030468426243  1.0000
  F   F3        1.0  0.9711854197001493  0.3497343815482772  0.2808969531791963  1.0000
  F   F4        1.0  0.528814580857049  0.6502656185487878  0.7808969531901065  1.0000
  F   F5        1.0  0.8344198369348527  0.928560126786925  0.13036411312250942  1.0000
  F   F6        1.0  0.6655801622668103  0.07143987331014004  0.6303641131334197  1.0000
  F   F7        1.0  0.1655801620810774  0.4285601262606764  0.3696358868884008  1.0000
  F   F8        1.0  0.33441983674911985  0.5714398728809565  0.869635886899311  1.0000
  F   F9        1.0  0.782188998216614  0.7270308888896151  0.18983487143144565  1.0000
  F   F10       1.0  0.7178110009850487  0.27296911120745004  0.6898348714423559  1.0000
  F   F11       1.0  0.21781100079931598  0.22703088931879858  0.31016512857946466  1.0000
  F   F12       1.0  0.2821889993864168  0.7729691107782665  0.8101651285903749  1.0000
  F   F13       1.0  0.8793479909932975  0.03724688054047879  0.24410668686708886  1.0000
  F   F14       1.0  0.6206520082083654  0.9627531186011543  0.7441066868779991  1.0000
  F   F15       1.0  0.12065200937816814  0.5372468810667274  0.25589331314382135  1.0000
  F   F16       1.0  0.3793479908075646  0.4627531190303377  0.7558933131547316  1.0000
  F   F17       1.0  0.9295694407837635  0.5657091022497392  0.8405835668268532  1.0000
  F   F18       1.0  0.5704305584178992  0.43429089784732583  0.340583566815943  1.0000
  F   F19       1.0  0.07043055823216657  0.06570910172349066  0.6594164332058775  1.0000
  F   F20       1.0  0.42956944059803065  0.9342908974181422  0.15941643319496726  1.0000
  F   F21       1.0  0.7139804243260722  0.6823616719250925  0.9207810892384573  1.0000
  F   F22       1.0  0.7860195762311261  0.31763832817197263  0.42078108922754687  1.0000
  F   F23       1.0  0.2860195760453933  0.18236167139884385  0.5792189107942737  1.0000
  F   F24       1.0  0.2139804241403395  0.8176383286982213  0.07921891078336339  1.0000
  F   F25       1.0  0.9023258810516898  0.8252647253561836  0.9822835594833311  1.0000
  F   F26       1.0  0.5976741195055085  0.17473527474088155  0.4822835594724209  1.0000
  F   F27       1.0  0.09767411931977578  0.3252647257853671  0.5177164405493996  1.0000
  F   F28       1.0  0.402325880865957  0.674735274311698  0.01771644053848936  1.0000
  F   F29       1.0  0.8781690004162441  0.8254414344351833  0.8520309622206276  1.0000
  F   F30       1.0  0.6218309987854186  0.17455856566188177  0.35203096220971736  1.0000
  F   F31       1.0  0.12183099859968584  0.3254414339089347  0.6479690378121031  1.0000
  F   F32       1.0  0.3781690002305114  0.6745585661881304  0.14796903780119292  1.0000
  F   F33       1.0  0.9445859724939212  0.5991058312136458  0.9902707942844867  1.0000
  F   F34       1.0  0.555414028063277  0.4008941688834193  0.49027079427357656  1.0000
  F   F35       1.0  0.055414027877544285  0.09910583068739717  0.509729205748244  1.0000
  F   F36       1.0  0.44458597230818847  0.9008941694096679  0.00972920573733373  1.0000
  S   S1        1.0  0.8184490746372831  0.8851645552802736  0.2164831413273038  1.0000
  S   S2        1.0  0.6815509259199152  0.11483544481679153  0.7164831413382141  1.0000
  S   S3        1.0  0.18155092573418244  0.38516455570945707  0.28351685868360643  1.0000
  S   S4        1.0  0.31844907445155035  0.614835444387608  0.7835168586945167  1.0000
  S   S5        1.0  0.9253524267021682  0.7120780248206281  0.9203635796561027  1.0000
  S   S6        1.0  0.5746475738550302  0.28792197527643704  0.42036357964519255  1.0000
  S   S7        1.0  0.07464757366929738  0.21207802429437947  0.5796364198289372  1.0000
  S   S8        1.0  0.4253524265164354  0.7879219748472535  0.0796364203657177  1.0000
