data_image0
_chemical_formula_structural       H96C56N16F80S16
_chemical_formula_sum              "H96 C56 N16 F80 S16"
_cell_length_a       8.529562429370904
_cell_length_b       20.44739051466466
_cell_length_c       16.331640308149215
_cell_angle_alpha    90.0
_cell_angle_beta     89.84778249586526
_cell_angle_gamma    90.0

_space_group_name_H-M_alt    "P 1"
_space_group_IT_number       1

loop_
  _space_group_symop_operation_xyz
  'x, y, z'

loop_
  _atom_site_type_symbol
  _atom_site_label
  _atom_site_symmetry_multiplicity
  _atom_site_fract_x
  _atom_site_fract_y
  _atom_site_fract_z
  _atom_site_occupancy
  H   H1        1.0  0.452174190849861  0.7984848980260093  0.8267888522411082  1.0000
  H   H2        1.0  0.5478258082382812  0.2984848978955442  0.6732111477388689  1.0000
  H   H3        1.0  0.5478258085461372  0.20151510223492086  0.17321114736971877  1.0000
  H   H4        1.0  0.45217419115192325  0.7015151018763259  0.3267888524842669  1.0000
  H   H5        1.0  0.5391524197271663  0.698393061440202  0.8854321214750429  1.0000
  H   H6        1.0  0.4608475805333587  0.19839306130973697  0.6145678785063334  1.0000
  H   H7        1.0  0.46084757966303813  0.3016069388207281  0.11456787874809292  1.0000
  H   H8        1.0  0.5391524200350224  0.8016069389511931  0.3854321211058927  1.0000
  H   H9        1.0  0.3581701276083536  0.6044131177098852  0.8953763052895654  1.0000
  H   H10       1.0  0.6418298714797885  0.10441311757942008  0.6046236946904117  1.0000
  H   H11       1.0  0.6418298717818509  0.3955868825510449  0.10462369493357046  1.0000
  H   H12       1.0  0.35817012791041586  0.8955868826815101  0.3953763055327242  1.0000
  H   H13       1.0  0.0033406613959821754  0.7281870652062611  0.7817114870722022  1.0000
  H   H14       1.0  0.9966593376921602  0.22818706507579609  0.718288512907775  1.0000
  H   H15       1.0  0.9966593379942223  0.27181293505466897  0.2182885131509337  1.0000
  H   H16       1.0  0.0033406617038381826  0.771812935185134  0.281711486703052  1.0000
  H   H17       1.0  0.20146207647918865  0.814798191390303  0.7751626856682635  1.0000
  H   H18       1.0  0.7985379237813365  0.3147981912598379  0.7248373143131128  1.0000
  H   H19       1.0  0.7985379240891924  0.18520180838156725  0.22483731394396259  1.0000
  H   H20       1.0  0.201462075608868  0.6852018085120323  0.2751626859100231  1.0000
  H   H21       1.0  0.2151735287518402  0.5258808639805718  0.8554581726190258  1.0000
  H   H22       1.0  0.7848264715086849  0.025880863850106735  0.6445418273623504  1.0000
  H   H23       1.0  0.7848264718107472  0.47411913579129833  0.14454182760550918  1.0000
  H   H24       1.0  0.2151735278815196  0.9741191359217634  0.3554581728607854  1.0000
  H   H25       1.0  0.01322871140451621  0.5071212217795341  0.864728573954625  1.0000
  H   H26       1.0  0.986771287683626  0.007121222138129053  0.6352714260253519  1.0000
  H   H27       1.0  0.9867712879856881  0.492878777992336  0.1352714262685108  1.0000
  H   H28       1.0  0.01322871171237222  0.992878778122801  0.3647285735854749  1.0000
  H   H29       1.0  0.10995326840652578  0.5490512117890227  0.9454934035149831  1.0000
  H   H30       1.0  0.8900467318539993  0.049051211658557636  0.5545065964663931  1.0000
  H   H31       1.0  0.8900467309836787  0.4509487884719074  0.05450659670815266  1.0000
  H   H32       1.0  0.10995326871438178  0.9509487886023725  0.44549340314583297  1.0000
  H   H33       1.0  0.8291432690849629  0.6383449692829453  0.8642555457909058  1.0000
  H   H34       1.0  0.17085673117556216  0.13834496915248026  0.6357444541904704  1.0000
  H   H35       1.0  0.1708567303110353  0.3616550309779848  0.13574445381992112  1.0000
  H   H36       1.0  0.8291432693870252  0.8616550311084499  0.36425554603406457  1.0000
  H   H37       1.0  0.8448225611465727  0.5664597715631763  0.8028685669453589  1.0000
  H   H38       1.0  0.15517743911395238  0.06645977143271119  0.6971314330360173  1.0000
  H   H39       1.0  0.15517743941601467  0.43354022869775394  0.1971314332791761  1.0000
  H   H40       1.0  0.8448225602820459  0.933540228339159  0.3028685665748096  1.0000
  H   H41       1.0  0.8891020787811011  0.6437618697877097  0.7596817534439283  1.0000
  H   H42       1.0  0.11089792147942387  0.14376186965724458  0.7403182465374478  1.0000
  H   H43       1.0  0.11089792178148616  0.35623813047322045  0.2403182467806067  1.0000
  H   H44       1.0  0.8891020779165744  0.8562381301146256  0.259681753073379  1.0000
  H   H45       1.0  0.9527239334271905  0.9817215221474539  0.8351014592981837  1.0000
  H   H46       1.0  0.047276066833334594  0.4817215220169888  0.6648985406831925  1.0000
  H   H47       1.0  0.04727606713539687  0.018278478113476257  0.16489854092635137  1.0000
  H   H48       1.0  0.9527239325626637  0.5182784777548813  0.3351014589276343  1.0000
  H   H49       1.0  0.693457445074563  0.9705107121501783  0.7945059640965452  1.0000
  H   H50       1.0  0.30654255518596213  0.4705107125087732  0.7054940358848311  1.0000
  H   H51       1.0  0.30654255549381815  0.029489287621691857  0.2054940355156809  1.0000
  H   H52       1.0  0.6934574453766252  0.5294892877521569  0.29450596433970394  1.0000
  H   H53       1.0  0.5097177410399006  0.06252910507494988  0.8049211789475162  1.0000
  H   H54       1.0  0.49028225804824144  0.562529104716355  0.6950788210324609  1.0000
  H   H55       1.0  0.4902822583560974  0.9374708951859803  0.19507882066331067  1.0000
  H   H56       1.0  0.509717741341963  0.4374708950555152  0.304921179190675  1.0000
  H   H57       1.0  0.8947032570958476  0.17849425565489357  0.9035493495852905  1.0000
  H   H58       1.0  0.10529674316467737  0.6784942557853586  0.5964506503960858  1.0000
  H   H59       1.0  0.10529674229435673  0.8215057441169766  0.09645065063784534  1.0000
  H   H60       1.0  0.8947032574037036  0.3215057439865115  0.40354934921614033  1.0000
  H   H61       1.0  0.06058719732577547  0.07987242180505616  0.8896866730506573  1.0000
  H   H62       1.0  0.9394128017623667  0.5798724219355212  0.6103133269293198  1.0000
  H   H63       1.0  0.9394128020644291  0.920127578455874  0.11031332717247855  1.0000
  H   H64       1.0  0.06058719763363147  0.42012757832540887  0.38968667268150714  1.0000
  H   H65       1.0  0.35995996938992614  0.14420996937898797  0.8803443766289711  1.0000
  H   H66       1.0  0.6400400308705989  0.6442099695094531  0.619655623352405  1.0000
  H   H67       1.0  0.6400400311726613  0.8557900303928822  0.1196556235955638  1.0000
  H   H68       1.0  0.35995996969778216  0.3557900302624171  0.38034437625982104  1.0000
  H   H69       1.0  0.41254121635584307  0.15643985660203744  0.775699185473346  1.0000
  H   H70       1.0  0.587458782732299  0.6564398562434426  0.724300814506631  1.0000
  H   H71       1.0  0.5874587830343614  0.8435601436588926  0.22430081474978977  1.0000
  H   H72       1.0  0.4125412166579054  0.3435601435284276  0.27569918571650487  1.0000
  H   H73       1.0  0.3687385228994189  0.22482188750212717  0.8386061201782835  1.0000
  H   H74       1.0  0.6312614773611063  0.7248218876325923  0.6613938798030927  1.0000
  H   H75       1.0  0.6312614764907856  0.775178112758803  0.16139388004485228  1.0000
  H   H76       1.0  0.36873852320148115  0.2751781126283379  0.33860612042144234  1.0000
  H   H77       1.0  0.746874116197585  0.2618236462085686  0.8701328716112938  1.0000
  H   H78       1.0  0.2531258828905572  0.7618236463390337  0.6298671283686833  1.0000
  H   H79       1.0  0.2531258831926195  0.7381763535633017  0.12986712861184196  1.0000
  H   H80       1.0  0.746874116505441  0.2381763539218965  0.3701328712421437  1.0000
  H   H81       1.0  0.6643607181009148  0.23532264014564955  0.9648532578447109  1.0000
  H   H82       1.0  0.3356392821596103  0.7353226402761146  0.5351467421366655  1.0000
  H   H83       1.0  0.3356392812892896  0.7646773601152805  0.03514674237842491  1.0000
  H   H84       1.0  0.6643607184029771  0.2646773599848155  0.4648532580878697  1.0000
  H   H85       1.0  0.548841423596423  0.28012737155345213  0.8932822400529158  1.0000
  H   H86       1.0  0.4511585766583084  0.7801273716839172  0.6067177605407694  1.0000
  H   H87       1.0  0.4511585757937815  0.7198726287074779  0.10671776017021999  1.0000
  H   H88       1.0  0.5488414239042789  0.21987262857701292  0.3932822396837657  1.0000
  H   H89       1.0  0.0727164701154662  0.9056203375545346  0.7448399252560597  1.0000
  H   H90       1.0  0.9272835301450589  0.40562033742406955  0.7551600747253167  1.0000
  H   H91       1.0  0.9272835304471212  0.09437966270639543  0.2551600749684753  1.0000
  H   H92       1.0  0.07271647041752846  0.5943796628368605  0.24483992549921843  1.0000
  H   H93       1.0  0.585684436145015  0.8685090088763947  0.7438184938439829  1.0000
  H   H94       1.0  0.4143155641155101  0.3685090092349897  0.7561815061373934  1.0000
  H   H95       1.0  0.4143155644175724  0.13149099089547536  0.2561815063805522  1.0000
  H   H96       1.0  0.5856844364528709  0.6314909910259404  0.24381849347483264  1.0000
  C   C1        1.0  0.4198693455178471  0.7008522539696319  0.8624421735317076  1.0000
  C   C2        1.0  0.580130654742678  0.2008522538391669  0.6375578264496687  1.0000
  C   C3        1.0  0.5801306550447403  0.29914774629129814  0.13755782669282746  1.0000
  C   C4        1.0  0.41986934464752645  0.7991477464217631  0.36244217377346716  1.0000
  C   C5        1.0  0.3177794505269925  0.6492693852782185  0.86717110072269  1.0000
  C   C6        1.0  0.6822205497335326  0.14926938514775345  0.6328288992586862  1.0000
  C   C7        1.0  0.6822205500355949  0.3507306144936516  0.132828899501845  1.0000
  C   C8        1.0  0.31777944966246563  0.8507306146241167  0.3671711003521406  1.0000
  C   C9        1.0  0.16170675440476118  0.6556940574096469  0.8370872224848375  1.0000
  C   C10       1.0  0.838293244683381  0.1556940572791819  0.6629127774951395  1.0000
  C   C11       1.0  0.8382932449912369  0.3443059428512832  0.16291277712598934  1.0000
  C   C12       1.0  0.16170675470682347  0.8443059424926882  0.33708722272799635  1.0000
  C   C13       1.0  0.12012491073350215  0.7178001163265163  0.8040651498006594  1.0000
  C   C14       1.0  0.879875089527023  0.21780011668511126  0.6959348501807169  1.0000
  C   C15       1.0  0.8798750886567024  0.2821998834453538  0.19593485042247646  1.0000
  C   C16       1.0  0.12012491103556443  0.7821998835758188  0.3040651500438181  1.0000
  C   C17       1.0  0.22864484020285178  0.7669685742419144  0.8004189327853961  1.0000
  C   C18       1.0  0.7713551600576732  0.2669685741114494  0.6995810671959802  1.0000
  C   C19       1.0  0.7713551591931465  0.23303142601901566  0.19958106682543086  1.0000
  C   C20       1.0  0.22864484050491404  0.7330314261494807  0.30041893302855477  1.0000
  C   C21       1.0  0.10245386381272187  0.5437739559982355  0.8786930894632  1.0000
  C   C22       1.0  0.8975461364478032  0.043773955867770505  0.6213069105181763  1.0000
  C   C23       1.0  0.8975461355774826  0.45622604426269453  0.12130691075993581  1.0000
  C   C24       1.0  0.10245386411478416  0.9562260443931595  0.3786930897063588  1.0000
  C   C25       1.0  0.8969104000174057  0.6142372881758393  0.8154474251656391  1.0000
  C   C26       1.0  0.10308959907073655  0.1142372885344342  0.684552574814338  1.0000
  C   C27       1.0  0.10308959937279882  0.38576271159603087  0.18455257505749678  1.0000
  C   C28       1.0  0.8969104003252617  0.8857627117264959  0.3154474247964889  1.0000
  C   C29       1.0  0.7307486159166333  0.018042175588881017  0.8171146898940783  1.0000
  C   C30       1.0  0.2692513843438918  0.5180421757193461  0.682885310087298  1.0000
  C   C31       1.0  0.26925138465174775  0.981957824182989  0.18288530971814787  1.0000
  C   C32       1.0  0.7307486150463128  0.48195782454158403  0.3171146901358378  1.0000
  C   C33       1.0  0.6302808278089087  0.06994201137667538  0.8232171496775473  1.0000
  C   C34       1.0  0.3697191724516164  0.5699420115071404  0.6767828503038288  1.0000
  C   C35       1.0  0.36971917275367866  0.9300579883951948  0.17678285054698759  1.0000
  C   C36       1.0  0.630280826938588  0.4300579882647297  0.323217149919307  1.0000
  C   C37       1.0  0.6843621192452939  0.13091180989966533  0.8542204265558334  1.0000
  C   C38       1.0  0.31563788101523127  0.6309118100301304  0.6457795734255428  1.0000
  C   C39       1.0  0.31563788132308723  0.8690881898722049  0.1457795730563926  1.0000
  C   C40       1.0  0.6843621195473562  0.3690881902307997  0.35422042679899224  1.0000
  C   C41       1.0  0.844598404058819  0.1341983358723465  0.8781787553980496  1.0000
  C   C42       1.0  0.15540159502932308  0.6341983355137516  0.6218212445819276  1.0000
  C   C43       1.0  0.15540159533138537  0.8658016643885836  0.12182124482508636  1.0000
  C   C44       1.0  0.8445984043666751  0.36580166425811855  0.3781787550288993  1.0000
  C   C45       1.0  0.9386407643021205  0.08021288285288558  0.8707583863379826  1.0000
  C   C46       1.0  0.061359235958404534  0.5802128824942907  0.6292416136433936  1.0000
  C   C47       1.0  0.06135923509387765  0.9197871174080444  0.12924161327284434  1.0000
  C   C48       1.0  0.9386407646041829  0.41978711727757945  0.3707583865811413  1.0000
  C   C49       1.0  0.4233096576771055  0.17650961463329742  0.837768208267707  1.0000
  C   C50       1.0  0.5766903425834196  0.6765096142747026  0.6622317917136692  1.0000
  C   C51       1.0  0.5766903428854818  0.8234903856276328  0.16223179195682794  1.0000
  C   C52       1.0  0.4233096568125786  0.32349038549716763  0.3377682078971577  1.0000
  C   C53       1.0  0.6401532743403536  0.24306111072880382  0.8994457667068342  1.0000
  C   C54       1.0  0.3598467259201715  0.7430611103702089  0.600554233274542  1.0000
  C   C55       1.0  0.35984672622223374  0.7569388895321263  0.1005542335177009  1.0000
  C   C56       1.0  0.6401532746424159  0.25693888940166126  0.39944576694999295  1.0000
  N   N1        1.0  0.3762040407334575  0.7584773782687423  0.8286882622646164  1.0000
  N   N2        1.0  0.6237959595270676  0.25847737862733716  0.6713117377167599  1.0000
  N   N3        1.0  0.6237959598349235  0.2415226215031279  0.1713117373476097  1.0000
  N   N4        1.0  0.3762040398631369  0.741522621633593  0.32868826250637595  1.0000
  N   N5        1.0  0.05986673445810592  0.6053964769304947  0.8394837823134426  1.0000
  N   N6        1.0  0.9401332646300362  0.10539647728908959  0.6605162176665346  1.0000
  N   N7        1.0  0.9401332649378923  0.39460352284137545  0.16051621729738433  1.0000
  N   N8        1.0  0.059866734760168204  0.8946035229718405  0.3394837825566014  1.0000
  N   N9        1.0  0.8824038236730644  0.0232894705883603  0.8402968984232602  1.0000
  N   N10       1.0  0.11759617658746067  0.5232894707188254  0.6597031015581162  1.0000
  N   N11       1.0  0.11759617688952297  0.9767105291835098  0.1597031018012748  1.0000
  N   N12       1.0  0.8824038239751267  0.47671052954210474  0.340296898666419  1.0000
  N   N13       1.0  0.587784071279813  0.1827823250756403  0.8604400410101206  1.0000
  N   N14       1.0  0.412215928980712  0.6827823252061054  0.6395599589712556  1.0000
  N   N15       1.0  0.41221592928277434  0.8172176746962297  0.13955995921441447  1.0000
  N   N16       1.0  0.5877840704152861  0.3172176745657648  0.36044004063957125  1.0000
  F   F1        1.0  0.27743661506516426  0.012431087958030747  0.8490054134036742  1.0000
  F   F2        1.0  0.7225633851953608  0.5124310880884958  0.650994586577702  1.0000
  F   F3        1.0  0.722563385497423  0.9875689118138394  0.15099458682086084  1.0000
  F   F4        1.0  0.2774366153672265  0.48756891168337435  0.34900541364683296  1.0000
  F   F5        1.0  0.2972101190658686  0.8645196323375404  0.9482387795677052  1.0000
  F   F6        1.0  0.7027898800222735  0.3645196326961352  0.5517612204122719  1.0000
  F   F7        1.0  0.7027898803243358  0.1354803674343299  0.051761220655430686  1.0000
  F   F8        1.0  0.2972101193737246  0.635480367564795  0.448238779198555  1.0000
  F   F9        1.0  0.16190198051506008  0.9603621183796835  0.9573190133359433  1.0000
  F   F10       1.0  0.8380980197396714  0.4603621187382784  0.5426809872577419  1.0000
  F   F11       1.0  0.8380980188751445  0.03963788139218664  0.04268098688719255  1.0000
  F   F12       1.0  0.16190198082291604  0.5396378815226517  0.45731901296679317  1.0000
  F   F13       1.0  0.4398414960138926  0.9600840095424741  0.9414602439074341  1.0000
  F   F14       1.0  0.5601585042466325  0.46008400941200905  0.5585397560739421  1.0000
  F   F15       1.0  0.5601585033763118  0.03991599071845601  0.05853975631570167  1.0000
  F   F16       1.0  0.4398414963217487  0.539915990359861  0.441460243538284  1.0000
  F   F17       1.0  0.7955545775694453  0.9094145669426005  0.9652963019070961  1.0000
  F   F18       1.0  0.20444542269107985  0.40941456681213545  0.5347036980742801  1.0000
  F   F19       1.0  0.20444542299314214  0.09058543331832956  0.03470369831743884  1.0000
  F   F20       1.0  0.7955545778773012  0.5905854329597346  0.465296301537946  1.0000
  F   F21       1.0  0.7763217149633931  0.7686010172656862  0.8512957272608909  1.0000
  F   F22       1.0  0.2236782841247491  0.2686010171352211  0.6487042727190862  1.0000
  F   F23       1.0  0.22367828443260512  0.23139898299524395  0.14870427234993605  1.0000
  F   F24       1.0  0.7763217152654553  0.731398982636649  0.3512957275040496  1.0000
  F   F25       1.0  0.6537527146181622  0.8151065681484755  0.9618736254906572  1.0000
  F   F26       1.0  0.3462472856423628  0.3151065680180104  0.538126374490719  1.0000
  F   F27       1.0  0.3462472859444251  0.18489343211245468  0.03812637473387771  1.0000
  F   F28       1.0  0.6537527137536353  0.6848934322429198  0.46187362512010793  1.0000
  F   F29       1.0  0.9342155129002946  0.813447143197616  0.9511677707167168  1.0000
  F   F30       1.0  0.06578448736023042  0.313447143067151  0.5488322292646596  1.0000
  F   F31       1.0  0.06578448649570352  0.18655285706331406  0.048832228894110166  1.0000
  F   F32       1.0  0.9342155132023571  0.6865528567047192  0.45116777095987554  1.0000
  F   F33       1.0  0.3701354287474023  0.8865086264675022  0.5460896382699327  1.0000
  F   F34       1.0  0.6298645715131228  0.3865086268260971  0.9539103617114436  1.0000
  F   F35       1.0  0.6298645718151851  0.113491373304368  0.4539103619546024  1.0000
  F   F36       1.0  0.37013542788287546  0.6134913734348331  0.04608963789938327  1.0000
  F   F37       1.0  0.4286241522128742  0.009562066605016201  0.684764891364815  1.0000
  F   F38       1.0  0.5713758480476508  0.5095620662464213  0.815235108616561  1.0000
  F   F39       1.0  0.5713758483497132  0.9904379336559139  0.3152351088597199  1.0000
  F   F40       1.0  0.42862415134834736  0.49043793352544884  0.18476489099426574  1.0000
  F   F41       1.0  0.5484603235625427  0.9669880704738069  0.5713922626736314  1.0000
  F   F42       1.0  0.4515396766979824  0.4669880703433418  0.9286077373077448  1.0000
  F   F43       1.0  0.45153967700004466  0.033011929787123265  0.42860773755090353  1.0000
  F   F44       1.0  0.5484603226922221  0.5330119299175884  0.07139226291539104  1.0000
  F   F45       1.0  0.2726225624121724  0.9885444602578178  0.5735262856801964  1.0000
  F   F46       1.0  0.7273774378483526  0.4885444606164127  0.92647371430118  1.0000
  F   F47       1.0  0.7273774381562086  0.01145553951405234  0.4264737139320297  1.0000
  F   F48       1.0  0.2726225615418519  0.5114555396445174  0.07352628592195593  1.0000
  F   F49       1.0  0.9131410578432241  0.7685294839324253  0.6434467940541927  1.0000
  F   F50       1.0  0.08685894241730101  0.26852948429102025  0.8565532059271836  1.0000
  F   F51       1.0  0.08685894154698037  0.23147051583944483  0.3565532061689432  1.0000
  F   F52       1.0  0.9131410581452865  0.7314705159699099  0.14344679429735138  1.0000
  F   F53       1.0  0.8620093521251747  0.9113748542453374  0.5367735975181226  1.0000
  F   F54       1.0  0.13799064813535034  0.4113748541148724  0.9632264024632535  1.0000
  F   F55       1.0  0.13799064843741263  0.08862514601559267  0.46322640270641235  1.0000
  F   F56       1.0  0.8620093512606478  0.5886251461460577  0.03677359714757332  1.0000
  F   F57       1.0  0.03255748888130567  0.8254275496863712  0.5392296102694465  1.0000
  F   F58       1.0  0.9674425113792193  0.3254275495559062  0.9607703897119296  1.0000
  F   F59       1.0  0.9674425105146925  0.1745724500854989  0.46077038934138026  1.0000
  F   F60       1.0  0.03255748918336795  0.6745724502159639  0.0392296105126054  1.0000
  F   F61       1.0  0.7545718835907962  0.8087664246515816  0.5409938139872437  1.0000
  F   F62       1.0  0.24542811666972886  0.3087664245211165  0.9590061859941327  1.0000
  F   F63       1.0  0.24542811697179115  0.19123357512028855  0.45900618623729145  1.0000
  F   F64       1.0  0.7545718838986522  0.6912335752507536  0.040993813618093386  1.0000
  F   F65       1.0  0.03012542209856506  0.9100926231468902  0.8180273537169532  1.0000
  F   F66       1.0  0.9698745769895771  0.410092623016425  0.6819726462630238  1.0000
  F   F67       1.0  0.9698745772916395  0.08990737662498004  0.18197264650618258  1.0000
  F   F68       1.0  0.03012542240642107  0.5899073767554451  0.3180273533478031  1.0000
  F   F69       1.0  0.11257530460069677  0.9002758394425812  0.6829930360616366  1.0000
  F   F70       1.0  0.8874246956598283  0.4002758398011761  0.8170069639197397  1.0000
  F   F71       1.0  0.8874246959618906  0.09972416032928891  0.3170069641628985  1.0000
  F   F72       1.0  0.11257530373616988  0.599724160459754  0.18299303569108724  1.0000
  F   F73       1.0  0.5424128068894781  0.8684659862716586  0.8164779036684362  1.0000
  F   F74       1.0  0.45758719337104703  0.36846598614119347  0.68352209631294  1.0000
  F   F75       1.0  0.4575871925007264  0.13153401398927156  0.18352209655469964  1.0000
  F   F76       1.0  0.5424128071973341  0.6315340136306766  0.316477903299286  1.0000
  F   F77       1.0  0.619211947184578  0.8701329838269483  0.6804832348582899  1.0000
  F   F78       1.0  0.3807880530759471  0.3701329836964832  0.8195167651230862  1.0000
  F   F79       1.0  0.3807880533838031  0.12986701643398185  0.31951676475393614  1.0000
  F   F80       1.0  0.6192119474866403  0.6298670165644469  0.18048323510144867  1.0000
  S   S1        1.0  0.28948698733957967  0.9355245910856376  0.8936384618739586  1.0000
  S   S2        1.0  0.7105130129209454  0.4355245909551725  0.6063615381074178  1.0000
  S   S3        1.0  0.7105130132230077  0.06447540917529256  0.10636153835057649  1.0000
  S   S4        1.0  0.28948698764164194  0.5644754093057577  0.39363846211711734  1.0000
  S   S5        1.0  0.7877866319174746  0.8425934833906387  0.9030641179059269  1.0000
  S   S6        1.0  0.21221336834305052  0.3425934837492336  0.5969358820754495  1.0000
  S   S7        1.0  0.21221336747272992  0.15740651638123146  0.09693588231720902  1.0000
  S   S8        1.0  0.7877866322195368  0.6574065165116966  0.40306411814908555  1.0000
  S   S9        1.0  0.39707115144543653  0.94393082511715  0.6200436261683436  1.0000
  S   S10       1.0  0.6029288476427056  0.443930825475745  0.8799563738116335  1.0000
  S   S11       1.0  0.6029288479505617  0.0560691746547201  0.3799563734424833  1.0000
  S   S12       1.0  0.3970711517474988  0.5560691747851851  0.1200436264115024  1.0000
  S   S13       1.0  0.8857901647395855  0.8434124979239596  0.5953261689830706  1.0000
  S   S14       1.0  0.11420983434855678  0.3434124977934946  0.9046738309969065  1.0000
  S   S15       1.0  0.11420983465061907  0.15658750184791048  0.40467383124006523  1.0000
  S   S16       1.0  0.8857901650416475  0.6565875019783756  0.09532616922622937  1.0000
