data_image0
_chemical_formula_structural       H96C80N16F80S16
_chemical_formula_sum              "H96 C80 N16 F80 S16"
_cell_length_a       13.944378569572393
_cell_length_b       13.68827855762775
_cell_length_c       16.587804662750717
_cell_angle_alpha    90.0
_cell_angle_beta     90.0
_cell_angle_gamma    90.0

_space_group_name_H-M_alt    "P 1"
_space_group_IT_number       1

loop_
  _space_group_symop_operation_xyz
  'x, y, z'

loop_
  _atom_site_type_symbol
  _atom_site_label
  _atom_site_symmetry_multiplicity
  _atom_site_fract_x
  _atom_site_fract_y
  _atom_site_fract_z
  _atom_site_occupancy
  H   H1        1.0  0.22890921198633832  0.9988111976565027  0.3509826109222187  1.0000
  H   H2        1.0  0.2710907876704268  0.0011888025168023857  0.8509826108393048  1.0000
  H   H3        1.0  0.7710907880443268  0.49881119756985015  0.14901738899486747  1.0000
  H   H4        1.0  0.7289092123602384  0.5011888026034549  0.6490173889119536  1.0000
  H   H5        1.0  0.7710907880443268  0.0011888025168023857  0.6490173889119536  1.0000
  H   H6        1.0  0.7289092123602384  0.9988111976565027  0.14901738899486747  1.0000
  H   H7        1.0  0.22890921198633832  0.5011888026034549  0.8509826108393048  1.0000
  H   H8        1.0  0.2710907876704268  0.49881119756985015  0.3509826109222187  1.0000
  H   H9        1.0  0.2867310852220077  0.8508260553705718  0.42777041713869113  1.0000
  H   H10       1.0  0.21326891443475743  0.1491739448027333  0.9277704170557772  1.0000
  H   H11       1.0  0.7132689148086575  0.3508260552839193  0.07222958277839503  1.0000
  H   H12       1.0  0.7867310855959078  0.6491739448893858  0.5722295832983337  1.0000
  H   H13       1.0  0.7132689148086575  0.1491739448027333  0.5722295832983337  1.0000
  H   H14       1.0  0.7867310855959078  0.8508260553705718  0.07222958277839503  1.0000
  H   H15       1.0  0.2867310852220077  0.6491739448893858  0.9277704170557772  1.0000
  H   H16       1.0  0.21326891443475743  0.3508260552839193  0.42777041713869113  1.0000
  H   H17       1.0  0.3097332655199452  0.8659669797116029  0.5775901286994787  1.0000
  H   H18       1.0  0.1902667341368199  0.1340330204617022  0.07759012878239256  1.0000
  H   H19       1.0  0.6902667345107201  0.36596697962495034  0.9224098710517797  1.0000
  H   H20       1.0  0.8097332658938452  0.6340330205483548  0.42240987113469364  1.0000
  H   H21       1.0  0.6902667345107201  0.1340330204617022  0.42240987113469364  1.0000
  H   H22       1.0  0.8097332658938452  0.8659669797116029  0.9224098710517797  1.0000
  H   H23       1.0  0.3097332655199452  0.6340330205483548  0.07759012878239256  1.0000
  H   H24       1.0  0.1902667341368199  0.36596697962495034  0.5775901286994787  1.0000
  H   H25       1.0  0.27405883531726216  0.02617532938795588  0.6449247671708472  1.0000
  H   H26       1.0  0.22594116505663786  0.9738246700547971  0.14492476725376108  1.0000
  H   H27       1.0  0.7259411647134031  0.5261753294746084  0.8550752325804113  1.0000
  H   H28       1.0  0.7740588349740273  0.4738246699681446  0.3550752326633251  1.0000
  H   H29       1.0  0.7259411647134031  0.9738246700547971  0.3550752326633251  1.0000
  H   H30       1.0  0.7740588349740273  0.02617532938795588  0.8550752325804113  1.0000
  H   H31       1.0  0.27405883531726216  0.4738246699681446  0.14492476725376108  1.0000
  H   H32       1.0  0.22594116505663786  0.5261753294746084  0.6449247671708472  1.0000
  H   H33       1.0  0.21566197482346597  0.16594136365921927  0.5593669462985671  1.0000
  H   H34       1.0  0.284338025550434  0.834058636514086  0.05936694638148086  1.0000
  H   H35       1.0  0.7843380252071992  0.6659413637458719  0.9406330534526914  1.0000
  H   H36       1.0  0.7156619744802311  0.3340586364274333  0.44063305353560533  1.0000
  H   H37       1.0  0.7843380252071992  0.834058636514086  0.44063305353560533  1.0000
  H   H38       1.0  0.7156619744802311  0.16594136365921927  0.9406330534526914  1.0000
  H   H39       1.0  0.21566197482346597  0.3340586364274333  0.05936694638148086  1.0000
  H   H40       1.0  0.284338025550434  0.6659413637458719  0.5593669462985671  1.0000
  H   H41       1.0  0.19552850680269573  0.14512722703856765  0.4189774826325638  1.0000
  H   H42       1.0  0.30447149285406944  0.8548727724041855  0.91897748254965  1.0000
  H   H43       1.0  0.8044714925108346  0.6451272271252202  0.08102251788737486  1.0000
  H   H44       1.0  0.6955285071765958  0.3548727730480849  0.581022517804461  1.0000
  H   H45       1.0  0.8044714925108346  0.8548727724041855  0.581022517804461  1.0000
  H   H46       1.0  0.6955285071765958  0.14512722703856765  0.08102251788737486  1.0000
  H   H47       1.0  0.19552850680269573  0.3548727730480849  0.91897748254965  1.0000
  H   H48       1.0  0.30447149285406944  0.6451272271252202  0.4189774826325638  1.0000
  H   H49       1.0  0.06332472943088478  0.3330432421292033  0.3186439307348041  1.0000
  H   H50       1.0  0.4366752702258803  0.6669567580441019  0.8186439306518902  1.0000
  H   H51       1.0  0.9366752705997804  0.8330432422158558  0.1813560697851346  1.0000
  H   H52       1.0  0.5633247298047848  0.16695675795744933  0.6813560697022207  1.0000
  H   H53       1.0  0.9366752705997804  0.6669567580441019  0.6813560697022207  1.0000
  H   H54       1.0  0.5633247298047848  0.3330432421292033  0.1813560697851346  1.0000
  H   H55       1.0  0.06332472943088478  0.16695675795744933  0.8186439306518902  1.0000
  H   H56       1.0  0.4366752702258803  0.8330432422158558  0.3186439307348041  1.0000
  H   H57       1.0  0.009657004026973243  0.4779592987135877  0.4011918041779276  1.0000
  H   H58       1.0  0.49034299562979194  0.5220407007291653  0.9011918040950138  1.0000
  H   H59       1.0  0.9903429952865571  0.9779592988002402  0.0988081963420111  1.0000
  H   H60       1.0  0.5096570044008732  0.022040700642512786  0.5988081962590972  1.0000
  H   H61       1.0  0.9903429952865571  0.5220407007291653  0.5988081962590972  1.0000
  H   H62       1.0  0.5096570044008732  0.4779592987135877  0.0988081963420111  1.0000
  H   H63       1.0  0.009657004026973243  0.022040700642512786  0.9011918040950138  1.0000
  H   H64       1.0  0.49034299562979194  0.9779592988002402  0.4011918041779276  1.0000
  H   H65       1.0  0.9602765259987216  0.6312139195315584  0.32875653354213563  1.0000
  H   H66       1.0  0.5397234736887088  0.36878607991119466  0.8287565334592218  1.0000
  H   H67       1.0  0.03972347403194361  0.13121391944490587  0.17124346637495053  1.0000
  H   H68       1.0  0.46027652634195637  0.8687860799978472  0.6712434662920367  1.0000
  H   H69       1.0  0.03972347403194361  0.36878607991119466  0.6712434662920367  1.0000
  H   H70       1.0  0.46027652634195637  0.6312139195315584  0.17124346637495053  1.0000
  H   H71       1.0  0.9602765259987216  0.8687860799978472  0.8287565334592218  1.0000
  H   H72       1.0  0.5397234736887088  0.13121391944490587  0.32875653354213563  1.0000
  H   H73       1.0  0.963781339766948  0.6337575943883649  0.17762008354343722  1.0000
  H   H74       1.0  0.5362186599204822  0.36624240505438826  0.6776200834605234  1.0000
  H   H75       1.0  0.0362186602637171  0.1337575950322643  0.32237991637364893  1.0000
  H   H76       1.0  0.4637813401101829  0.8662424051410408  0.8223799162907351  1.0000
  H   H77       1.0  0.0362186602637171  0.36624240505438826  0.8223799162907351  1.0000
  H   H78       1.0  0.4637813401101829  0.6337575943883649  0.32237991637364893  1.0000
  H   H79       1.0  0.963781339766948  0.8662424051410408  0.6776200834605234  1.0000
  H   H80       1.0  0.5362186599204822  0.1337575950322643  0.17762008354343722  1.0000
  H   H81       1.0  0.018928237546271227  0.4824527877773184  0.10402733484527603  1.0000
  H   H82       1.0  0.48107176282762876  0.5175472123959867  0.6040273347623623  1.0000
  H   H83       1.0  0.981071762484394  0.982452787133419  0.3959726650718101  1.0000
  H   H84       1.0  0.5189282372030364  0.017547212309334124  0.8959726649888964  1.0000
  H   H85       1.0  0.981071762484394  0.5175472123959867  0.8959726649888964  1.0000
  H   H86       1.0  0.5189282372030364  0.4824527877773184  0.3959726650718101  1.0000
  H   H87       1.0  0.018928237546271227  0.017547212309334124  0.6040273347623623  1.0000
  H   H88       1.0  0.48107176282762876  0.982452787133419  0.10402733484527603  1.0000
  H   H89       1.0  0.06394207569390035  0.3434041095971559  0.17550272258373953  1.0000
  H   H90       1.0  0.4360579239628648  0.6565958905761492  0.6755027225008257  1.0000
  H   H91       1.0  0.9360579243367648  0.8434041096838085  0.32449727733334666  1.0000
  H   H92       1.0  0.5639420760678004  0.15659589048949663  0.8244972772504328  1.0000
  H   H93       1.0  0.9360579243367648  0.6565958905761492  0.8244972772504328  1.0000
  H   H94       1.0  0.5639420760678004  0.3434041095971559  0.32449727733334666  1.0000
  H   H95       1.0  0.06394207569390035  0.15659589048949663  0.6755027225008257  1.0000
  H   H96       1.0  0.4360579239628648  0.8434041096838085  0.17550272258373953  1.0000
  C   C1        1.0  0.23997860953818156  0.9993216730950747  0.41588180354518517  1.0000
  C   C2        1.0  0.2600213901185836  0.000678327078230439  0.9158818034622713  1.0000
  C   C3        1.0  0.7600213904924836  0.4993216730084221  0.084118196371901  1.0000
  C   C4        1.0  0.7399786099120816  0.500678327164883  0.5841181962889872  1.0000
  C   C5        1.0  0.7600213904924836  0.000678327078230439  0.5841181962889872  1.0000
  C   C6        1.0  0.7399786099120816  0.9993216730950747  0.084118196371901  1.0000
  C   C7        1.0  0.23997860953818156  0.500678327164883  0.9158818034622713  1.0000
  C   C8        1.0  0.2600213901185836  0.4993216730084221  0.41588180354518517  1.0000
  C   C9        1.0  0.2713723161717088  0.9189382439174989  0.4593045912283237  1.0000
  C   C10       1.0  0.2286276842021912  0.08106175625580625  0.9593045917482624  1.0000
  C   C11       1.0  0.7286276838589564  0.41893824383084627  0.04069540868876246  1.0000
  C   C12       1.0  0.771372315828474  0.5810617563424588  0.5406954086058486  1.0000
  C   C13       1.0  0.7286276838589564  0.08106175625580625  0.5406954086058486  1.0000
  C   C14       1.0  0.771372315828474  0.9189382439174989  0.04069540868876246  1.0000
  C   C15       1.0  0.2713723161717088  0.5810617563424588  0.9593045917482624  1.0000
  C   C16       1.0  0.2286276842021912  0.41893824383084627  0.4593045912283237  1.0000
  C   C17       1.0  0.28412756367969827  0.9279431322590875  0.5425011231418573  1.0000
  C   C18       1.0  0.21587243669420175  0.07205686791421761  0.042501123224771044  1.0000
  C   C19       1.0  0.7158724363509669  0.42794313217243496  0.9574988766094014  1.0000
  C   C20       1.0  0.7841275633364634  0.5720568680008702  0.4574988766923151  1.0000
  C   C21       1.0  0.7158724363509669  0.07205686791421761  0.4574988766923151  1.0000
  C   C22       1.0  0.7841275633364634  0.9279431322590875  0.9574988766094014  1.0000
  C   C23       1.0  0.28412756367969827  0.5720568680008702  0.042501123224771044  1.0000
  C   C24       1.0  0.21587243669420175  0.42794313217243496  0.5425011231418573  1.0000
  C   C25       1.0  0.2654409546852617  0.017088424889604086  0.5802365096336946  1.0000
  C   C26       1.0  0.23455904497150346  0.9829115752837011  0.08023650971660841  1.0000
  C   C27       1.0  0.7345590453454035  0.5170884249762566  0.9197634907204164  1.0000
  C   C28       1.0  0.7654409543420269  0.48291157519704847  0.4197634908033303  1.0000
  C   C29       1.0  0.7345590453454035  0.9829115752837011  0.4197634908033303  1.0000
  C   C30       1.0  0.7654409543420269  0.017088424889604086  0.9197634907204164  1.0000
  C   C31       1.0  0.2654409546852617  0.48291157519704847  0.08023650971660841  1.0000
  C   C32       1.0  0.23455904497150346  0.5170884249762566  0.5802365096336946  1.0000
  C   C33       1.0  0.234369490450532  0.09515001864673622  0.5339070069885531  1.0000
  C   C34       1.0  0.26563050992336806  0.9048499815265689  0.033907007071466884  1.0000
  C   C35       1.0  0.7656305095801331  0.5951500187333887  0.9660929927627054  1.0000
  C   C36       1.0  0.7343694901072971  0.40484998143991635  0.4660929928456192  1.0000
  C   C37       1.0  0.7656305095801331  0.9048499815265689  0.4660929928456192  1.0000
  C   C38       1.0  0.7343694901072971  0.09515001864673622  0.9660929927627054  1.0000
  C   C39       1.0  0.234369490450532  0.40484998143991635  0.033907007071466884  1.0000
  C   C40       1.0  0.26563050992336806  0.5951500187333887  0.5339070069885531  1.0000
  C   C41       1.0  0.03941431719297146  0.40129214399564095  0.2913205278364219  1.0000
  C   C42       1.0  0.4605856824637937  0.5987078561776642  0.791320527753508  1.0000
  C   C43       1.0  0.9605856828376937  0.9012921440822935  0.20867947208066423  1.0000
  C   C44       1.0  0.5394143175668715  0.0987078560910116  0.7086794726006029  1.0000
  C   C45       1.0  0.9605856828376937  0.5987078561776642  0.7086794726006029  1.0000
  C   C46       1.0  0.5394143175668715  0.40129214399564095  0.20867947208066423  1.0000
  C   C47       1.0  0.03941431719297146  0.0987078560910116  0.791320527753508  1.0000
  C   C48       1.0  0.4605856824637937  0.9012921440822935  0.2913205278364219  1.0000
  C   C49       1.0  0.010811050434972727  0.482072897787638  0.33573512006117917  1.0000
  C   C50       1.0  0.48918894922179246  0.5179271023856671  0.8357351199782654  1.0000
  C   C51       1.0  0.9891889495956925  0.9820728978742905  0.16426487985590696  1.0000
  C   C52       1.0  0.5108110508088727  0.017927102299014546  0.6642648797729932  1.0000
  C   C53       1.0  0.9891889495956925  0.5179271023856671  0.6642648797729932  1.0000
  C   C54       1.0  0.5108110508088727  0.482072897787638  0.16426487985590696  1.0000
  C   C55       1.0  0.010811050434972727  0.017927102299014546  0.8357351199782654  1.0000
  C   C56       1.0  0.48918894922179246  0.9820728978742905  0.33573512006117917  1.0000
  C   C57       1.0  0.9839455319966075  0.5670817771073515  0.2952002341211551  1.0000
  C   C58       1.0  0.5160544676908229  0.4329182223354015  0.7952002340382412  1.0000
  C   C59       1.0  0.016054467316922894  0.067081777020699  0.20479976579593104  1.0000
  C   C60       1.0  0.4839455323398422  0.932918222422054  0.7047997657130172  1.0000
  C   C61       1.0  0.016054467316922894  0.4329182223354015  0.7047997657130172  1.0000
  C   C62       1.0  0.4839455323398422  0.5670817771073515  0.20479976579593104  1.0000
  C   C63       1.0  0.9839455319966075  0.932918222422054  0.7952002340382412  1.0000
  C   C64       1.0  0.5160544676908229  0.067081777020699  0.2952002341211551  1.0000
  C   C65       1.0  0.9864024912529173  0.569433284629973  0.21101872376519457  1.0000
  C   C66       1.0  0.513597508434513  0.4305667155433321  0.7110187236822807  1.0000
  C   C67       1.0  0.013597508777747876  0.06943328454332047  0.2889812761518916  1.0000
  C   C68       1.0  0.4864024915961522  0.9305667156299846  0.7889812760689777  1.0000
  C   C69       1.0  0.013597508777747876  0.4305667155433321  0.7889812760689777  1.0000
  C   C70       1.0  0.4864024915961522  0.569433284629973  0.2889812761518916  1.0000
  C   C71       1.0  0.9864024912529173  0.9305667156299846  0.7110187236822807  1.0000
  C   C72       1.0  0.513597508434513  0.06943328454332047  0.21101872376519457  1.0000
  C   C73       1.0  0.015534337290058426  0.48695204454950625  0.16944799852338607  1.0000
  C   C74       1.0  0.48446566236670674  0.5130479556237989  0.6694479984404722  1.0000
  C   C75       1.0  0.9844656627406068  0.9869520446361588  0.3305520013937001  1.0000
  C   C76       1.0  0.5155343376639584  0.0130479555371463  0.8305520013107862  1.0000
  C   C77       1.0  0.9844656627406068  0.5130479556237989  0.8305520013107862  1.0000
  C   C78       1.0  0.5155343376639584  0.48695204454950625  0.3305520013937001  1.0000
  C   C79       1.0  0.015534337290058426  0.0130479555371463  0.6694479984404722  1.0000
  C   C80       1.0  0.48446566236670674  0.9869520446361588  0.16944799852338607  1.0000
  N   N1        1.0  0.2224722754421842  0.08440556459571576  0.4538108003468432  1.0000
  N   N2        1.0  0.27752772421458094  0.9155944355775893  0.9538108002639293  1.0000
  N   N3        1.0  0.777527724588481  0.5844055646823684  0.04618920017309552  1.0000
  N   N4        1.0  0.7224722758160843  0.41559443549093683  0.5461892000901817  1.0000
  N   N5        1.0  0.777527724588481  0.9155944355775893  0.5461892000901817  1.0000
  N   N6        1.0  0.7224722758160843  0.08440556459571576  0.04618920017309552  1.0000
  N   N7        1.0  0.2224722754421842  0.41559443549093683  0.9538108002639293  1.0000
  N   N8        1.0  0.27752772421458094  0.5844055646823684  0.4538108003468432  1.0000
  N   N9        1.0  0.040816599116288446  0.40571894680688514  0.2101848979346397  1.0000
  N   N10       1.0  0.4591834005404767  0.59428105336642  0.7101848978517258  1.0000
  N   N11       1.0  0.9591834009143768  0.9057189468935377  0.2898151019824464  1.0000
  N   N12       1.0  0.5408165994901885  0.09428105327976743  0.7898151018995326  1.0000
  N   N13       1.0  0.9591834009143768  0.59428105336642  0.7898151018995326  1.0000
  N   N14       1.0  0.5408165994901885  0.40571894680688514  0.2898151019824464  1.0000
  N   N15       1.0  0.040816599116288446  0.09428105327976743  0.7101848978517258  1.0000
  N   N16       1.0  0.4591834005404767  0.9057189468935377  0.2101848979346397  1.0000
  F   F1        1.0  0.23426268253560278  0.10697801143037072  0.24302388362773922  1.0000
  F   F2        1.0  0.2657373178382973  0.8930219887429344  0.7430238835448253  1.0000
  F   F3        1.0  0.7657373174950624  0.6069780115170232  0.2569761168921995  1.0000
  F   F4        1.0  0.7342626821923679  0.39302198865628185  0.7569761168092857  1.0000
  F   F5        1.0  0.7657373174950624  0.8930219887429344  0.7569761168092857  1.0000
  F   F6        1.0  0.7342626821923679  0.10697801143037072  0.2569761168921995  1.0000
  F   F7        1.0  0.23426268253560278  0.39302198865628185  0.7430238835448253  1.0000
  F   F8        1.0  0.2657373178382973  0.6069780115170232  0.24302388362773922  1.0000
  F   F9        1.0  0.3062834524099534  0.23420485830291227  0.17147320503401237  1.0000
  F   F10       1.0  0.19371654796394663  0.7657951418703929  0.6714732049510985  1.0000
  F   F11       1.0  0.6937165476207118  0.7342048583895648  0.32852679488307385  1.0000
  F   F12       1.0  0.8062834520667186  0.2657951417837403  0.82852679480016  1.0000
  F   F13       1.0  0.6937165476207118  0.7657951418703929  0.82852679480016  1.0000
  F   F14       1.0  0.8062834520667186  0.23420485830291227  0.32852679488307385  1.0000
  F   F15       1.0  0.3062834524099534  0.2657951417837403  0.6714732049510985  1.0000
  F   F16       1.0  0.19371654796394663  0.7342048583895648  0.17147320503401237  1.0000
  F   F17       1.0  0.3274977667319628  0.2175670108890685  0.31094432173911796  1.0000
  F   F18       1.0  0.1725022329248024  0.7824329892842367  0.8109443216562041  1.0000
  F   F19       1.0  0.6725022332987024  0.7175670109757211  0.1890556781779682  1.0000
  F   F20       1.0  0.8274977671058629  0.28243298919758403  0.6890556780950543  1.0000
  F   F21       1.0  0.6725022332987024  0.7824329892842367  0.6890556780950543  1.0000
  F   F22       1.0  0.8274977671058629  0.2175670108890685  0.1890556781779682  1.0000
  F   F23       1.0  0.3274977667319628  0.28243298919758403  0.8109443216562041  1.0000
  F   F24       1.0  0.1725022329248024  0.7175670109757211  0.31094432173911796  1.0000
  F   F25       1.0  0.2607239556686453  0.35849013075976066  0.26009537715912256  1.0000
  F   F26       1.0  0.23927604470525474  0.6415098694135445  0.7600953770762088  1.0000
  F   F27       1.0  0.73927604436202  0.8584901308464131  0.2399046227579636  1.0000
  F   F28       1.0  0.7607239553254105  0.14150986932689194  0.7399046226750496  1.0000
  F   F29       1.0  0.73927604436202  0.6415098694135445  0.7399046226750496  1.0000
  F   F30       1.0  0.7607239553254105  0.35849013075976066  0.2399046227579636  1.0000
  F   F31       1.0  0.2607239556686453  0.14150986932689194  0.7600953770762088  1.0000
  F   F32       1.0  0.23927604470525474  0.8584901308464131  0.26009537715912256  1.0000
  F   F33       1.0  0.0007417584045351388  0.13003368411202704  0.012550962844861223  1.0000
  F   F34       1.0  0.49925824125223  0.869966316061278  0.5125509627619473  1.0000
  F   F35       1.0  0.99925824162613  0.6300336841986796  0.4874490370722249  1.0000
  F   F36       1.0  0.5007417587784352  0.36996631597462554  0.9874490375921635  1.0000
  F   F37       1.0  0.99925824162613  0.869966316061278  0.9874490375921635  1.0000
  F   F38       1.0  0.5007417587784352  0.13003368411202704  0.4874490370722249  1.0000
  F   F39       1.0  0.0007417584045351388  0.36996631597462554  0.5125509627619473  1.0000
  F   F40       1.0  0.49925824125223  0.6300336841986796  0.012550962844861223  1.0000
  F   F41       1.0  0.9464289687887253  0.251295379876908  0.9254812069540167  1.0000
  F   F42       1.0  0.5535710308987051  0.7487046202963972  0.4254812070369306  1.0000
  F   F43       1.0  0.05357103124193991  0.7512953799635606  0.5745187934000943  1.0000
  F   F44       1.0  0.4464289691319601  0.24870462020974454  0.07451879348300812  1.0000
  F   F45       1.0  0.05357103124193991  0.7487046202963972  0.07451879348300812  1.0000
  F   F46       1.0  0.4464289691319601  0.251295379876908  0.5745187934000943  1.0000
  F   F47       1.0  0.9464289687887253  0.24870462020974454  0.4254812070369306  1.0000
  F   F48       1.0  0.5535710308987051  0.7512953799635606  0.9254812069540167  1.0000
  F   F49       1.0  0.9261570098348263  0.26543945936688246  0.06518575133863992  1.0000
  F   F50       1.0  0.5738429898526041  0.7345605408064226  0.5651857512557261  1.0000
  F   F51       1.0  0.07384299019583887  0.7654394594535351  0.43481424857844625  1.0000
  F   F52       1.0  0.4261570101780612  0.23456054071977012  0.9348142484955324  1.0000
  F   F53       1.0  0.07384299019583887  0.7345605408064226  0.9348142484955324  1.0000
  F   F54       1.0  0.4261570101780612  0.26543945936688246  0.43481424857844625  1.0000
  F   F55       1.0  0.9261570098348263  0.23456054071977012  0.5651857512557261  1.0000
  F   F56       1.0  0.5738429898526041  0.7654394594535351  0.06518575133863992  1.0000
  F   F57       1.0  0.011178696793282778  0.3830050797058431  0.9968840866044931  1.0000
  F   F58       1.0  0.48882130358061726  0.6169949204674621  0.49688408668740697  1.0000
  F   F59       1.0  0.9888213032373824  0.8830050797924958  0.503115913749618  1.0000
  F   F60       1.0  0.511178696450048  0.11699492038080946  0.003115913832531773  1.0000
  F   F61       1.0  0.9888213032373824  0.6169949204674621  0.003115913832531773  1.0000
  F   F62       1.0  0.511178696450048  0.3830050797058431  0.503115913749618  1.0000
  F   F63       1.0  0.011178696793282778  0.11699492038080946  0.49688408668740697  1.0000
  F   F64       1.0  0.48882130358061726  0.8830050797924958  0.9968840866044931  1.0000
  F   F65       1.0  0.15537954446588448  0.22706359875091928  0.37069111404524663  1.0000
  F   F66       1.0  0.3446204551908807  0.7729364006918338  0.8706911139623328  1.0000
  F   F67       1.0  0.8446204555647808  0.7270635988375719  0.12930888647469205  1.0000
  F   F68       1.0  0.6553795448397844  0.2729364006051812  0.6293088863917783  1.0000
  F   F69       1.0  0.8446204555647808  0.7729364006918338  0.6293088863917783  1.0000
  F   F70       1.0  0.6553795448397844  0.22706359875091928  0.12930888647469205  1.0000
  F   F71       1.0  0.15537954446588448  0.2729364006051812  0.8706911139623328  1.0000
  F   F72       1.0  0.3446204551908807  0.7270635988375719  0.37069111404524663  1.0000
  F   F73       1.0  0.09826594732518218  0.261346793531354  0.12333237469295998  1.0000
  F   F74       1.0  0.40173405233158294  0.7386532066419511  0.6233323746100462  1.0000
  F   F75       1.0  0.901734052705483  0.7613467936180066  0.3766676252241262  1.0000
  F   F76       1.0  0.5982659476990823  0.23865320655529856  0.8766676251412123  1.0000
  F   F77       1.0  0.901734052705483  0.7386532066419511  0.8766676251412123  1.0000
  F   F78       1.0  0.5982659476990823  0.261346793531354  0.3766676252241262  1.0000
  F   F79       1.0  0.09826594732518218  0.23865320655529856  0.6233323746100462  1.0000
  F   F80       1.0  0.40173405233158294  0.7613467936180066  0.12333237469295998  1.0000
  S   S1        1.0  0.23987843583785992  0.23319933449346802  0.25105606586697143  1.0000
  S   S2        1.0  0.2601215638189053  0.7668006656798371  0.7510560663869101  1.0000
  S   S3        1.0  0.7601215641928053  0.7331993345801207  0.24894393405011472  1.0000
  S   S4        1.0  0.73987843621176  0.26680066559318455  0.7489439339672008  1.0000
  S   S5        1.0  0.7601215641928053  0.7668006656798371  0.7489439339672008  1.0000
  S   S6        1.0  0.73987843621176  0.23319933449346802  0.24894393405011472  1.0000
  S   S7        1.0  0.23987843583785992  0.26680066559318455  0.7510560663869101  1.0000
  S   S8        1.0  0.2601215638189053  0.7331993345801207  0.25105606586697143  1.0000
  S   S9        1.0  0.013728278319818328  0.25556581459621214  0.004442080281151629  1.0000
  S   S10       1.0  0.4862717213369468  0.744434185577093  0.5044420801982378  1.0000
  S   S11       1.0  0.9862717217108469  0.7555658146828647  0.49555791963593454  1.0000
  S   S12       1.0  0.5137282786937184  0.24443418549044044  0.9955579195530206  1.0000
  S   S13       1.0  0.9862717217108469  0.744434185577093  0.9955579195530206  1.0000
  S   S14       1.0  0.5137282786937184  0.25556581459621214  0.49555791963593454  1.0000
  S   S15       1.0  0.013728278319818328  0.24443418549044044  0.5044420801982378  1.0000
  S   S16       1.0  0.4862717213369468  0.7555658146828647  0.004442080281151629  1.0000
