data_image0
_chemical_formula_structural       H32C36N6O6F4
_chemical_formula_sum              "H32 C36 N6 O6 F4"
_cell_length_a       4.62342066085179
_cell_length_b       10.378113958328209
_cell_length_c       17.066693389830196
_cell_angle_alpha    84.7255001577168
_cell_angle_beta     84.64927709181379
_cell_angle_gamma    79.5855159093939

_space_group_name_H-M_alt    "P 1"
_space_group_IT_number       1

loop_
  _space_group_symop_operation_xyz
  'x, y, z'

loop_
  _atom_site_type_symbol
  _atom_site_label
  _atom_site_symmetry_multiplicity
  _atom_site_fract_x
  _atom_site_fract_y
  _atom_site_fract_z
  _atom_site_occupancy
  H   H1        1.0  0.7823347181376687  0.6689913269719882  0.815034571665888  1.0000
  H   H2        1.0  0.21766528051743658  0.33100867308126164  0.18496542858003417  1.0000
  H   H3        1.0  0.36751438458407504  0.8607166389499643  0.8044401002360746  1.0000
  H   H4        1.0  0.6324856162513371  0.13928336110642037  0.19555989937114104  1.0000
  H   H5        1.0  0.039111458979675225  0.9219552292886652  0.6926271469701311  1.0000
  H   H6        1.0  0.960888540076624  0.07804476978124716  0.3073728527351496  1.0000
  H   H7        1.0  0.5039940622236593  0.5751907166917771  0.5839675385186819  1.0000
  H   H8        1.0  0.4960059364409364  0.4248092833607248  0.41603246114111125  1.0000
  H   H9        1.0  0.8166035878505176  0.5304500638857113  0.7014153834293735  1.0000
  H   H10       1.0  0.18339641297540413  0.46954993617142143  0.2985846167639712  1.0000
  H   H11       1.0  0.7509915015528332  0.9521019050165905  0.4879061252175078  1.0000
  H   H12       1.0  0.2490084992730886  0.04789809504054219  0.5120938749758368  1.0000
  H   H13       1.0  0.40136653276949674  0.014073332271874447  0.38271952383717067  1.0000
  H   H14       1.0  0.5986334680659153  0.9859266677845102  0.617280475770045  1.0000
  H   H15       1.0  0.6242736916826125  0.6200608366319308  0.3066487894435033  1.0000
  H   H16       1.0  0.3757263069724931  0.379939163421319  0.6933512108024189  1.0000
  H   H17       1.0  0.9389953155614008  0.5551073516853242  0.41954956055308285  1.0000
  H   H18       1.0  0.061004683103194915  0.4448926483671778  0.5804504391067103  1.0000
  H   H19       1.0  0.17047393542060174  0.6986496031701205  0.251136786554903  1.0000
  H   H20       1.0  0.8295260654053198  0.3013503968870124  0.7488632136384417  1.0000
  H   H21       1.0  0.487289567983069  0.7415606496782399  0.1943143088729649  1.0000
  H   H22       1.0  0.5127104328428529  0.2584393503788928  0.8056856913203798  1.0000
  H   H23       1.0  0.8551468035796272  0.8963601214150083  0.19382691642665784  1.0000
  H   H24       1.0  0.14485319724629458  0.10363987864212428  0.8061730837666868  1.0000
  H   H25       1.0  0.029216087103000284  0.7924011077806148  0.12169608113711082  1.0000
  H   H26       1.0  0.9707839115615955  0.20759889227188721  0.8783039185226822  1.0000
  H   H27       1.0  0.050407035193603296  0.027469164489150155  0.07495022108410551  1.0000
  H   H28       1.0  0.9495929656323183  0.9725308355679826  0.9250497791092391  1.0000
  H   H29       1.0  0.4122862483368685  0.9404211575894378  0.08671590320945578  1.0000
  H   H30       1.0  0.5877137524985436  0.05957884246694694  0.9132840963977599  1.0000
  H   H31       1.0  0.2307687068249116  0.04688691815207398  0.1587223411549829  1.0000
  H   H32       1.0  0.7692312940010102  0.9531130819050587  0.8412776590383618  1.0000
  C   C1        1.0  0.6009079350336839  0.3731259616350341  0.02928517189580301  1.0000
  C   C2        1.0  0.39909206362142147  0.6268740384182158  0.9707148283501191  1.0000
  C   C3        1.0  0.41491143952842435  0.3974634838548036  0.9679774787061723  1.0000
  C   C4        1.0  0.5850885612974974  0.6025365162023291  0.0320225214871723  1.0000
  C   C5        1.0  0.31008000418940806  0.5246041445579023  0.9360800435453337  1.0000
  C   C6        1.0  0.6899199944656973  0.4753958554953476  0.06391995670058843  1.0000
  C   C7        1.0  0.1214294139795723  0.5475202142627823  0.8668557663059447  1.0000
  C   C8        1.0  0.878570585076727  0.4524797848071299  0.13314423339933593  1.0000
  C   C9        1.0  0.38912455634574583  0.8011563788233204  0.754258495328998  1.0000
  C   C10       1.0  0.6108754427105536  0.19884362024659175  0.24574150437628262  1.0000
  C   C11       1.0  0.20742692271700724  0.8337903507057426  0.6927907051639559  1.0000
  C   C12       1.0  0.7925730781089144  0.16620964935139027  0.3072092950293889  1.0000
  C   C13       1.0  0.24493352178825106  0.7518563663139909  0.6301474375664131  1.0000
  C   C14       1.0  0.755066479047161  0.24814363374239393  0.3698525620408026  1.0000
  C   C15       1.0  0.46673821968808715  0.6394011038459206  0.6321451071577836  1.0000
  C   C16       1.0  0.533261781147325  0.3605988962104641  0.3678548924494319  1.0000
  C   C17       1.0  0.6391072835207063  0.6147719483033502  0.6957819211600621  1.0000
  C   C18       1.0  0.36089271730521544  0.38522805175378244  0.3042180790332826  1.0000
  C   C19       1.0  0.8651323957906123  0.7493070548695785  0.46075657575682544  1.0000
  C   C20       1.0  0.1348676050353095  0.25069294518755414  0.5392434244365193  1.0000
  C   C21       1.0  0.7140031952985397  0.8799247833212233  0.4494276386967253  1.0000
  C   C22       1.0  0.28599680552738205  0.12007521673590947  0.5505723614966195  1.0000
  C   C23       1.0  0.5249433765966285  0.9145713671965362  0.3905489040953128  1.0000
  C   C24       1.0  0.4750566242387837  0.08542863285984874  0.6094510955119029  1.0000
  C   C25       1.0  0.4897166544227387  0.8213897773586064  0.33838682412986115  1.0000
  C   C26       1.0  0.5102833464031831  0.17861022269852636  0.6616131760634836  1.0000
  C   C27       1.0  0.6441456884630509  0.691608439255034  0.3476557434301259  1.0000
  C   C28       1.0  0.3558543102015448  0.308391560797468  0.6523442562296672  1.0000
  C   C29       1.0  0.8263215343250765  0.6563386381799363  0.40933228452117576  1.0000
  C   C30       1.0  0.17367846473122273  0.3436613608899759  0.5906677151841048  1.0000
  C   C31       1.0  0.2692547771148615  0.7811096532495504  0.22209682365003755  1.0000
  C   C32       1.0  0.7307452237110602  0.21889034680758232  0.7779031765433072  1.0000
  C   C33       1.0  0.07087971799222842  0.860954913954933  0.1629624032832929  1.0000
  C   C34       1.0  0.9291202806723673  0.139045086097569  0.8370375963765002  1.0000
  C   C35       1.0  0.1985303715271694  0.9750180189485343  0.11844270497757266  1.0000
  C   C36       1.0  0.8014696292987523  0.024981981108598596  0.8815572952157721  1.0000
  N   N1        1.0  0.6018446350886955  0.6940861288213581  0.7553836456830809  1.0000
  N   N2        1.0  0.39815536612892993  0.30591387025318484  0.2446163545557512  1.0000
  N   N3        1.0  0.05860953097829425  0.793053155956958  0.5690304485989455  1.0000
  N   N4        1.0  0.9413904676863015  0.20694684409554384  0.43096955106084767  1.0000
  N   N5        1.0  0.0481694615602259  0.7058345229507587  0.521582226200151  1.0000
  N   N6        1.0  0.9518305371043698  0.2941654771017433  0.4784177734596421  1.0000
  O   O1        1.0  0.9266101495709713  0.6555158658005698  0.8683780576339627  1.0000
  O   O2        1.0  0.0733898512549505  0.34448413425656293  0.13162194255938206  1.0000
  O   O3        1.0  0.1590669542788909  0.4686675143011208  0.8150221834924937  1.0000
  O   O4        1.0  0.8409330465470308  0.531332485756012  0.184977816700851  1.0000
  O   O5        1.0  0.3048557717505574  0.8673093472343907  0.281773780292477  1.0000
  O   O6        1.0  0.6951442269045479  0.13269065281885925  0.7182262199534453  1.0000
  F   F1        1.0  0.32389840431787886  0.2927273811473957  0.9427973972193922  1.0000
  F   F2        1.0  0.6761015965175331  0.7072726189089892  0.05720260238782334  1.0000
  F   F3        1.0  0.6806610876971192  0.24653293955421615  0.056610524727722066  1.0000
  F   F4        1.0  0.3193389131288026  0.7534670605029167  0.9433894754656227  1.0000
