data_image0
_chemical_formula_structural       H48C56N8O24
_chemical_formula_sum              "H48 C56 N8 O24"
_cell_length_a       8.486248653679288
_cell_length_b       4.995873446644378
_cell_length_c       30.33323872731981
_cell_angle_alpha    90.0
_cell_angle_beta     98.7108757556392
_cell_angle_gamma    90.0

_space_group_name_H-M_alt    "P 1"
_space_group_IT_number       1

loop_
  _space_group_symop_operation_xyz
  'x, y, z'

loop_
  _atom_site_type_symbol
  _atom_site_label
  _atom_site_symmetry_multiplicity
  _atom_site_fract_x
  _atom_site_fract_y
  _atom_site_fract_z
  _atom_site_occupancy
  H   H1        1.0  0.44860163793094265  0.4269547362999555  0.2064447859016238  1.0000
  H   H2        1.0  0.5513983621978796  0.9269547356349689  0.29355521395090806  1.0000
  H   H3        1.0  0.5513983620936814  0.5730452643717233  0.7935552139862129  1.0000
  H   H4        1.0  0.44860163782674434  0.07304526503670991  0.7064447859369286  1.0000
  H   H5        1.0  0.7414695711631213  0.11852859091091213  0.9794606675515735  1.0000
  H   H6        1.0  0.2585304287573045  0.6185285922475775  0.520539332371568  1.0000
  H   H7        1.0  0.2585304288615028  0.8814714077591146  0.02053933233626318  1.0000
  H   H8        1.0  0.7414695712673196  0.38147140842410127  0.4794606675162687  1.0000
  H   H9        1.0  0.732040900711611  0.8794759448823086  0.1266279281545987  1.0000
  H   H10       1.0  0.2679590982250854  0.37947594354564324  0.37337207164681613  1.0000
  H   H11       1.0  0.2679590993130131  0.12052405578937016  0.8733720717332379  1.0000
  H   H12       1.0  0.7320409017995386  0.6205240551243836  0.6266279282410206  1.0000
  H   H13       1.0  0.4974659301442934  0.4653657893519284  0.03558361346403788  1.0000
  H   H14       1.0  0.5025340699845289  0.9653657886869418  0.464416386388494  1.0000
  H   H15       1.0  0.5025340698803306  0.5346342113197504  0.9644163864237988  1.0000
  H   H16       1.0  0.4974659300400951  0.034634209983085  0.5355836134993426  1.0000
  H   H17       1.0  0.37252484986348144  0.6663670518387682  0.09598351579381992  1.0000
  H   H18       1.0  0.6274751502653408  0.1663670525037549  0.40401648405871193  1.0000
  H   H19       1.0  0.6274751501611426  0.33363294683125855  0.9040164840940167  1.0000
  H   H20       1.0  0.3725248497592831  0.8336329481679239  0.5959835158291247  1.0000
  H   H21       1.0  0.13530394484442648  0.30082949178976304  0.007939708650221523  1.0000
  H   H22       1.0  0.8646960552843959  0.8008294911247764  0.49206029120231026  1.0000
  H   H23       1.0  0.8646960551801975  0.6991705088819158  0.9920602912376151  1.0000
  H   H24       1.0  0.13530394474022817  0.19917050754525037  0.5079397086855264  1.0000
  H   H25       1.0  0.09105853814178996  0.531415919228945  0.04840406039225369  1.0000
  H   H26       1.0  0.9089414619870324  0.03141591989393165  0.45159593946027815  1.0000
  H   H27       1.0  0.908941461882834  0.4685840814427338  0.951595939495583  1.0000
  H   H28       1.0  0.09105853803759167  0.9685840807777472  0.5484040604275585  1.0000
  H   H29       1.0  0.023407662221140324  0.31630266796717843  0.23691968367088792  1.0000
  H   H30       1.0  0.976592337907682  0.8163026673021919  0.2630803161816439  1.0000
  H   H31       1.0  0.9765923378034836  0.6836973327045003  0.7630803162169487  1.0000
  H   H32       1.0  0.02340766211694203  0.18369733136783495  0.7369196837061927  1.0000
  H   H33       1.0  0.8925963364552363  0.6110250915283632  0.17627966281792912  1.0000
  H   H34       1.0  0.1074036636735861  0.11102509219334974  0.3237203370346028  1.0000
  H   H35       1.0  0.1074036635693878  0.3889749091433156  0.8237203370699075  1.0000
  H   H36       1.0  0.8925963363510379  0.888974908478329  0.6762796628532339  1.0000
  H   H37       1.0  0.9335545976981812  0.5376128876531141  0.0982939774727896  1.0000
  H   H38       1.0  0.06644540243064125  0.037612886316448754  0.40170602237974223  1.0000
  H   H39       1.0  0.06644540232644294  0.4623871130185646  0.9017060224150469  1.0000
  H   H40       1.0  0.9335545975939827  0.962387112353578  0.5982939775080944  1.0000
  H   H41       1.0  0.22959097981117485  0.853339690352542  0.140927858296427  1.0000
  H   H42       1.0  0.7704090191233292  0.3533396910175286  0.3590721418345657  1.0000
  H   H43       1.0  0.7704090202112569  0.1466603083174848  0.8590721419209876  1.0000
  H   H44       1.0  0.22959098089910251  0.6466603096541502  0.6409278583828488  1.0000
  H   H45       1.0  0.19362688182996493  0.9353798349593466  0.21884146854711894  1.0000
  H   H46       1.0  0.8063731182988574  0.4353798336226812  0.28115853130541285  1.0000
  H   H47       1.0  0.8063731181946592  0.06462016571233221  0.7811585313407177  1.0000
  H   H48       1.0  0.19362688172576667  0.5646201650473456  0.7188414685824237  1.0000
  C   C1        1.0  0.7007786596324622  0.0404047544750324  0.04056960744084801  1.0000
  C   C2        1.0  0.2992213404963602  0.5404047538100458  0.45943039241168376  1.0000
  C   C3        1.0  0.29922134039216186  0.9595952461966464  0.9594303924469887  1.0000
  C   C4        1.0  0.7007786595282639  0.459595244859981  0.5405696074761528  1.0000
  C   C5        1.0  0.6526739167063683  0.04979872141619314  0.1195302970889141  1.0000
  C   C6        1.0  0.34732608342245397  0.5497987227528586  0.3804697027636177  1.0000
  C   C7        1.0  0.3473260833182557  0.9502012772538336  0.8804697027989224  1.0000
  C   C8        1.0  0.6526739166021701  0.4502012779188203  0.6195302971242189  1.0000
  C   C9        1.0  0.5214924171002151  0.38062599469512925  0.06887316902663469  1.0000
  C   C10       1.0  0.47850758302641494  0.8806259940301426  0.43112683115547507  1.0000
  C   C11       1.0  0.4785075829222167  0.6193740059765496  0.9311268311907799  1.0000
  C   C12       1.0  0.5214924169960168  0.11937400664153613  0.5688731690619396  1.0000
  C   C13       1.0  0.6226002366586453  0.15574174132105176  0.07683924194831326  1.0000
  C   C14       1.0  0.3773997634701771  0.6557417406560652  0.4231607579042186  1.0000
  C   C15       1.0  0.37739976336597886  0.8442582593506269  0.9231607579395233  1.0000
  C   C16       1.0  0.6226002365544469  0.34425825801396165  0.576839241983618  1.0000
  C   C17       1.0  0.45263951717562567  0.4958474602001531  0.10255427167986052  1.0000
  C   C18       1.0  0.5473604817610708  0.9958474595351664  0.39744572812155426  1.0000
  C   C19       1.0  0.5473604828489983  0.5041525404715257  0.8974457282079761  1.0000
  C   C20       1.0  0.4526395182635533  0.004152539134860262  0.6025542717662823  1.0000
  C   C21       1.0  0.4826815096848843  0.3942990932492733  0.1462501630440098  1.0000
  C   C22       1.0  0.517318490443938  0.8942990945859386  0.353749836808522  1.0000
  C   C23       1.0  0.5173184903397396  0.6057009054207535  0.8537498368438268  1.0000
  C   C24       1.0  0.48268150958068606  0.10570090608574008  0.6462501630793146  1.0000
  C   C25       1.0  0.5841076125173917  0.16627791693922228  0.15411838492512653  1.0000
  C   C26       1.0  0.4158923864171124  0.6662779182758877  0.3458816152058662  1.0000
  C   C27       1.0  0.4158923875050401  0.8337220817308044  0.845881615292288  1.0000
  C   C28       1.0  0.5841076136053194  0.3337220823957911  0.6541183850115484  1.0000
  C   C29       1.0  0.12017674465617435  0.1393064791237776  0.06860079439457704  1.0000
  C   C30       1.0  0.879823255472648  0.639306478458791  0.4313992054579548  1.0000
  C   C31       1.0  0.8798232553684497  0.8606935215479011  0.9313992054932596  1.0000
  C   C32       1.0  0.12017674455197605  0.36069352221288775  0.5686007944298819  1.0000
  C   C33       1.0  0.03977058430277528  0.27893449561577643  0.2025219511212595  1.0000
  C   C34       1.0  0.960229415826047  0.7789344949507898  0.2974780487312723  1.0000
  C   C35       1.0  0.9602294157218488  0.7210655050559024  0.7974780487665771  1.0000
  C   C36       1.0  0.03977058419857698  0.22106550572088896  0.7025219511565644  1.0000
  C   C37       1.0  0.08691259793997795  0.19091053049805007  0.11442222762921844  1.0000
  C   C38       1.0  0.9130874021866521  0.6909105298330634  0.3855777725528913  1.0000
  C   C39       1.0  0.9130874020846461  0.8090894701736286  0.8855777722586182  1.0000
  C   C40       1.0  0.08691259783577963  0.3090894708386153  0.6144222276645233  1.0000
  C   C41       1.0  0.967494820968122  0.4462626853563493  0.1684626952281083  1.0000
  C   C42       1.0  0.0325051791585081  0.9462626846913627  0.33153730495400147  1.0000
  C   C43       1.0  0.03250517905650207  0.5537373153153295  0.8315373046597284  1.0000
  C   C44       1.0  0.9674948208639238  0.053737315980316135  0.6684626952634132  1.0000
  C   C45       1.0  0.9915970217303044  0.405259400908143  0.12449039305008094  1.0000
  C   C46       1.0  0.008402977206391972  0.9052594002431563  0.3755096067513338  1.0000
  C   C47       1.0  0.008402977102193674  0.5947405997635358  0.8755096067866388  1.0000
  C   C48       1.0  0.9915970228182321  0.09474060042852239  0.6244903931365028  1.0000
  C   C49       1.0  0.15661157428983918  0.020350865786700385  0.14867590222117677  1.0000
  C   C50       1.0  0.8433884258389831  0.5203508651217137  0.3513240976313551  1.0000
  C   C51       1.0  0.843388425734785  0.9796491348849785  0.8513240976666598  1.0000
  C   C52       1.0  0.15661157418564084  0.479649135549965  0.6486759022564815  1.0000
  C   C53       1.0  0.13493066695093178  0.06583004824129418  0.19257619884993626  1.0000
  C   C54       1.0  0.8650693331778906  0.5658300495779596  0.3074238010025956  1.0000
  C   C55       1.0  0.8650693330736923  0.9341699504287326  0.8074238010379002  1.0000
  C   C56       1.0  0.13493066684673347  0.4341699510937192  0.6925761988852411  1.0000
  N   N1        1.0  0.6207544166944262  0.05514353454750558  0.19805411745650417  1.0000
  N   N2        1.0  0.37924558343439607  0.555143535884171  0.30194588239602765  1.0000
  N   N3        1.0  0.37924558333019776  0.9448564641225212  0.8019458824313326  1.0000
  N   N4        1.0  0.620754416590228  0.44485646478750784  0.698054117491809  1.0000
  N   N5        1.0  0.1025924061653494  0.33743771895028957  0.03871218602672676  1.0000
  N   N6        1.0  0.8974075939634729  0.837437720286955  0.461287813825805  1.0000
  N   N7        1.0  0.8974075938592747  0.6625622797197372  0.9612878138611098  1.0000
  N   N8        1.0  0.1025924060611511  0.16256228038472384  0.5387121860620316  1.0000
  O   O1        1.0  0.41471371071772295  0.5192455068577431  0.1772389350250834  1.0000
  O   O2        1.0  0.5852862894089071  0.01924550552107773  0.32276106515702635  1.0000
  O   O3        1.0  0.5852862893047088  0.4807544938139357  0.8227610651923313  1.0000
  O   O4        1.0  0.4147137106135247  0.980754493148949  0.6772389350603882  1.0000
  O   O5        1.0  0.5602606004569647  0.1654629883699779  0.22913045514098423  1.0000
  O   O6        1.0  0.43973939966966546  0.6654629897066433  0.2708695450411255  1.0000
  O   O7        1.0  0.43973939956765945  0.834537010300049  0.7708695447468524  1.0000
  O   O8        1.0  0.5602606003527663  0.3345370109650355  0.729130455176289  1.0000
  O   O9        1.0  0.7863153702568639  0.8377429622063683  0.045143542383840024  1.0000
  O   O10       1.0  0.21368462987195852  0.3377429628713549  0.45485645746869174  1.0000
  O   O11       1.0  0.2136846297677602  0.16225703846531048  0.9548564575039966  1.0000
  O   O12       1.0  0.7863153701526656  0.6622570378003239  0.5451435424191448  1.0000
  O   O13       1.0  0.6711034206197884  0.18001244619277812  0.0029694977797884953  1.0000
  O   O14       1.0  0.32889657831690794  0.6800124475294436  0.49703050202162624  1.0000
  O   O15       1.0  0.3288965794048356  0.8199875524772486  0.9970305021080481  1.0000
  O   O16       1.0  0.6711034217077162  0.31998755314223526  0.5029694978662104  1.0000
  O   O17       1.0  0.7097074330581107  0.8581793826022005  0.204824064207136  1.0000
  O   O18       1.0  0.2902925670707117  0.3581793812655352  0.29517593564539585  1.0000
  O   O19       1.0  0.29029256696651334  0.1418206180694782  0.7951759356807007  1.0000
  O   O20       1.0  0.7097074329539123  0.6418206174044916  0.7048240642424407  1.0000
  O   O21       1.0  0.1677254123162514  0.9089319132072956  0.05849025652897124  1.0000
  O   O22       1.0  0.8322745878103787  0.40893191387228217  0.44150974365313844  1.0000
  O   O23       1.0  0.8322745877061803  0.09106808546273126  0.9415097436884433  1.0000
  O   O24       1.0  0.1677254122142454  0.5910680867993966  0.5584902562346981  1.0000
