data_image0
_chemical_formula_structural       H68C84N4O12
_chemical_formula_sum              "H68 C84 N4 O12"
_cell_length_a       10.001871464826655
_cell_length_b       20.872285172857726
_cell_length_c       7.6331299754015305
_cell_angle_alpha    90.0
_cell_angle_beta     101.23704712691323
_cell_angle_gamma    90.0

_space_group_name_H-M_alt    "P 1"
_space_group_IT_number       1

loop_
  _space_group_symop_operation_xyz
  'x, y, z'

loop_
  _atom_site_type_symbol
  _atom_site_label
  _atom_site_symmetry_multiplicity
  _atom_site_fract_x
  _atom_site_fract_y
  _atom_site_fract_z
  _atom_site_occupancy
  H   H1        1.0  0.422012285729142  0.495516242440451  0.7750177225507393  1.0000
  H   H2        1.0  0.5779877142312688  0.9955162421324414  0.7249822776088984  1.0000
  H   H3        1.0  0.5779877142789482  0.5044837579017384  0.22498227690675862  1.0000
  H   H4        1.0  0.4220122857685905  0.004483757730643666  0.27501772315653383  1.0000
  H   H5        1.0  0.3853905371164053  0.5176612474637182  0.08656679813423082  1.0000
  H   H6        1.0  0.6146094629311334  0.017661247771727766  0.4134332019290617  1.0000
  H   H7        1.0  0.614609462883454  0.4823387523993669  0.9134332026312013  1.0000
  H   H8        1.0  0.3853905370769569  0.9823387525704615  0.5865667975284363  1.0000
  H   H9        1.0  0.1686100897181088  0.56291551656638  0.13169929143565956  1.0000
  H   H10       1.0  0.8313899103294299  0.06291551639528527  0.3683007086276329  1.0000
  H   H11       1.0  0.8313899102899814  0.4370844832967052  0.8683007080218386  1.0000
  H   H12       1.0  0.16861008967042942  0.9370844834677998  0.6316992921377994  1.0000
  H   H13       1.0  0.9793947377397849  0.5829642024929295  0.8707167651954445  1.0000
  H   H14       1.0  0.02060526222885692  0.08296420232183475  0.6292832336562592  1.0000
  H   H15       1.0  0.020605262268305335  0.4170357973701557  0.1292832342620536  1.0000
  H   H16       1.0  0.9793947377792334  0.9170357975412504  0.37071676580123886  1.0000
  H   H17       1.0  0.015073562763758925  0.5625848412261937  0.5647198939601776  1.0000
  H   H18       1.0  0.9849264382159734  0.06258484105509898  0.935280106470313  1.0000
  H   H19       1.0  0.9849264372443314  0.43741515863689145  0.43528010549732044  1.0000
  H   H20       1.0  0.015073561783886006  0.9374151588079861  0.06471989429511911  1.0000
  H   H21       1.0  0.14661353341811473  0.5221262789266454  0.3697116090025222  1.0000
  H   H22       1.0  0.8533864666294241  0.02212627875555081  0.13028839106077025  1.0000
  H   H23       1.0  0.8533864665899756  0.4778737214155439  0.6302883904549759  1.0000
  H   H24       1.0  0.14661353337043534  0.9778737211075343  0.8697116097046619  1.0000
  H   H25       1.0  0.2566355457601081  0.34109771263848804  0.47805088847070587  1.0000
  H   H26       1.0  0.7433644532681093  0.8410977123304785  0.021949111321733616  1.0000
  H   H27       1.0  0.7433644542479821  0.6589022877037013  0.5219491109867922  1.0000
  H   H28       1.0  0.25663554673175004  0.15890228753260663  0.9780508894436986  1.0000
  H   H29       1.0  0.4254392020092839  0.5585801881990926  0.47773256281422455  1.0000
  H   H30       1.0  0.5745607980382548  0.058580188507102206  0.02226743724906789  1.0000
  H   H31       1.0  0.5745607979988063  0.44141981166399247  0.5222674366432736  1.0000
  H   H32       1.0  0.42543920196160456  0.9414198118350872  0.9777325635163643  1.0000
  H   H33       1.0  0.47442865716534044  0.36084896108042164  0.6621967942870771  1.0000
  H   H34       1.0  0.5255713428033015  0.8608489607724121  0.8378032045646265  1.0000
  H   H35       1.0  0.5255713428427499  0.6391510392617676  0.3378032051704209  1.0000
  H   H36       1.0  0.47442865720478883  0.139151039090673  0.16219679489287153  1.0000
  H   H37       1.0  0.6874370449345902  0.3205400599211909  0.848455210372261  1.0000
  H   H38       1.0  0.3125629550258207  0.8205400600922856  0.6515447897873768  1.0000
  H   H39       1.0  0.31256295507350007  0.6794599399418942  0.15154478908523705  1.0000
  H   H40       1.0  0.6874370449740387  0.17945994024990378  0.3484552109780554  1.0000
  H   H41       1.0  0.7283764170394803  0.20197018798315053  0.886305160050729  1.0000
  H   H42       1.0  0.27162358292093064  0.7019701881542453  0.6136948401089088  1.0000
  H   H43       1.0  0.2716235829603791  0.7980298118799346  0.11369484071470315  1.0000
  H   H44       1.0  0.7283764170871596  0.29802981218794417  0.3863051593485893  1.0000
  H   H45       1.0  0.5550627793925319  0.1250430654039718  0.7393664160893453  1.0000
  H   H46       1.0  0.444937220567879  0.6250430650959623  0.7606335840702926  1.0000
  H   H47       1.0  0.44493722061555846  0.8749569344591133  0.2606335833681528  1.0000
  H   H48       1.0  0.5550627794319802  0.37495693476712283  0.2393664166951397  1.0000
  H   H49       1.0  0.3285721022058515  0.10489548517893489  0.5405816238740879  1.0000
  H   H50       1.0  0.6714278987738809  0.6048954853500296  0.9594183765564028  1.0000
  H   H51       1.0  0.6714278977940079  0.8951045146841503  0.4594183768913443  1.0000
  H   H52       1.0  0.3285721012342095  0.3951045149921598  0.04058162290109525  1.0000
  H   H53       1.0  0.10250677066094152  0.08886553171532997  0.3311766631713933  1.0000
  H   H54       1.0  0.8974932293865971  0.5888655318864247  0.16882333689189916  1.0000
  H   H55       1.0  0.8974932293471487  0.9111344681477551  0.6688233362861047  1.0000
  H   H56       1.0  0.10250677061326213  0.4111344684557647  0.831176663873533  1.0000
  H   H57       1.0  0.890121922876241  0.13754802295118917  0.1544203876266057  1.0000
  H   H58       1.0  0.10987807717129766  0.6375480231222839  0.3455796124366867  1.0000
  H   H59       1.0  0.10987807713184923  0.8624519769118959  0.8455796118308923  1.0000
  H   H60       1.0  0.8901219228367926  0.3624519772199055  0.6544203870208113  1.0000
  H   H61       1.0  0.8636567225966151  0.25591376774336533  0.13889614088720398  1.0000
  H   H62       1.0  0.13634327745092373  0.7559137674353558  0.3611038591760885  1.0000
  H   H63       1.0  0.13634327740324434  0.744086232598824  0.8611038598782284  1.0000
  H   H64       1.0  0.8636567225571666  0.24408623242772934  0.6388961402814096  1.0000
  H   H65       1.0  0.04519914068081197  0.32725495332357973  0.2988262733340345  1.0000
  H   H66       1.0  0.9548008593667268  0.8272549534946745  0.201173726729258  1.0000
  H   H67       1.0  0.9548008593272783  0.6727450465395054  0.7011737261234635  1.0000
  H   H68       1.0  0.04519914063313257  0.17274504636841073  0.7988262740361742  1.0000
  C   C1        1.0  0.22141947858199895  0.5276258027712731  0.6498390249202876  1.0000
  C   C2        1.0  0.7785805213866429  0.027625802600178495  0.850160973931416  1.0000
  C   C3        1.0  0.7785805214260914  0.4723741975709162  0.3501609745372104  1.0000
  C   C4        1.0  0.2214194786214474  0.9723741972629066  0.14983902552608208  1.0000
  C   C5        1.0  0.3250669061295381  0.5144569255868319  0.7976158479615169  1.0000
  C   C6        1.0  0.6749330938308729  0.014456925415737124  0.702384152198121  1.0000
  C   C7        1.0  0.6749330938785523  0.4855430742762534  0.20238415149598118  1.0000
  C   C8        1.0  0.32506690616898654  0.9855430744473481  0.29761584856731127  1.0000
  C   C9        1.0  0.30563425140644895  0.5272104658817948  0.9703168021809974  1.0000
  C   C10       1.0  0.6943657485539619  0.027210465710700137  0.5296831979786404  1.0000
  C   C11       1.0  0.6943657485934104  0.4727895339812903  0.02968319858443488  1.0000
  C   C12       1.0  0.3056342514541284  0.972789534152385  0.47031680147885757  1.0000
  C   C13       1.0  0.1815920856717739  0.5524443535772784  0.9966676215755175  1.0000
  C   C14       1.0  0.818407914288637  0.052444353406183766  0.5033323785841203  1.0000
  C   C15       1.0  0.8184079143363162  0.44755564676491094  0.003332377881980524  1.0000
  C   C16       1.0  0.18159208571122232  0.9475556464569014  0.4966676221813119  1.0000
  C   C17       1.0  0.0771240228579105  0.5643618397528443  0.8506101161401511  1.0000
  C   C18       1.0  0.9228759771025005  0.06436183958174962  0.6493898840194866  1.0000
  C   C19       1.0  0.9228759771419489  0.43563816058934507  0.14938988462528105  1.0000
  C   C20       1.0  0.07712402290558991  0.9356381602813356  0.35061011543801146  1.0000
  C   C21       1.0  0.09732719130003184  0.5523538833683693  0.6776746143835112  1.0000
  C   C22       1.0  0.902672808660379  0.05235388367637883  0.8223253857761266  1.0000
  C   C23       1.0  0.9026728087080584  0.44764611649471586  0.32232538507398684  1.0000
  C   C24       1.0  0.09732719133948026  0.9476461166658106  0.1776746149893056  1.0000
  C   C25       1.0  0.24572899962520464  0.5180105719358408  0.4615676204485917  1.0000
  C   C26       1.0  0.7542710004223341  0.0180105717647461  0.0384323796147008  1.0000
  C   C27       1.0  0.7542710003746547  0.4819894279272444  0.5384323803168405  1.0000
  C   C28       1.0  0.2457289995857562  0.981989428098339  0.9615676198427973  1.0000
  C   C29       1.0  0.29611953941903796  0.44946544962884627  0.43723695362746945  1.0000
  C   C30       1.0  0.7038804606285007  0.9494654497999411  0.06276304643582302  1.0000
  C   C31       1.0  0.7038804605890523  0.5505345502342388  0.5627630458300287  1.0000
  C   C32       1.0  0.2961195393713586  0.05053455006314414  0.9372369543296093  1.0000
  C   C33       1.0  0.39257607409004946  0.26603373487924364  0.5951065285563047  1.0000
  C   C34       1.0  0.6074239258785923  0.7660337350503383  0.9048934702953989  1.0000
  C   C35       1.0  0.6074239259180407  0.7339662649838415  0.4048934709011933  1.0000
  C   C36       1.0  0.3925760741294979  0.23396626481274685  0.09510652916209915  1.0000
  C   C37       1.0  0.4922147100737449  0.3097020209558088  0.68119534070974  1.0000
  C   C38       1.0  0.507785289886666  0.8097020211269034  0.8188046594498978  1.0000
  C   C39       1.0  0.5077852899261146  0.6902979789072764  0.31880466005569225  1.0000
  C   C40       1.0  0.49221471012142415  0.1902979792152859  0.18119534000760024  1.0000
  C   C41       1.0  0.6109969893841275  0.28649647513326265  0.7834342029342878  1.0000
  C   C42       1.0  0.38900301057628334  0.7864964753043573  0.7165657972253501  1.0000
  C   C43       1.0  0.3890030106239627  0.7135035247298226  0.21656579652321029  1.0000
  C   C44       1.0  0.610996989423576  0.2135035245587278  0.28343420354008214  1.0000
  C   C45       1.0  0.634364648182181  0.21959276773202804  0.8039222154254361  1.0000
  C   C46       1.0  0.3656353517782299  0.7195927679031228  0.6960777847342017  1.0000
  C   C47       1.0  0.36563535182590934  0.7804072321310571  0.19607778403206197  1.0000
  C   C48       1.0  0.6343646482216293  0.28040723195996237  0.3039222160312305  1.0000
  C   C49       1.0  0.5388839965467808  0.17628862482124738  0.7218678624228958  1.0000
  C   C50       1.0  0.4611160034136302  0.6762886245132379  0.7781321377367422  1.0000
  C   C51       1.0  0.46111600346130954  0.823711375520942  0.2781321370346023  1.0000
  C   C52       1.0  0.5388839965862292  0.32371137534984734  0.22186786302869013  1.0000
  C   C53       1.0  0.414760663089087  0.19813520396788367  0.6148160901591838  1.0000
  C   C54       1.0  0.585239336871324  0.6981352041389783  0.8851839100004539  1.0000
  C   C55       1.0  0.5852393369107723  0.8018647958952015  0.3851839106062484  1.0000
  C   C56       1.0  0.4147606631367663  0.30186479572410674  0.11481608945704408  1.0000
  C   C57       1.0  0.31362217283555105  0.15659252894121423  0.526270883717631  1.0000
  C   C58       1.0  0.6863778271330908  0.6565925291123089  0.9737291151340726  1.0000
  C   C59       1.0  0.6863778271725393  0.8434074709218708  0.47372911573986703  1.0000
  C   C60       1.0  0.3136221728749995  0.34340747122988047  0.026270884323425385  1.0000
  C   C61       1.0  0.19359479154321513  0.1804207138227983  0.4202078669800672  1.0000
  C   C62       1.0  0.8064052085043236  0.6804207135147888  0.07979213308322523  1.0000
  C   C63       1.0  0.8064052084648751  0.819579286519391  0.5797921324774309  1.0000
  C   C64       1.0  0.19359479149553574  0.31957928634829635  0.9202078676822069  1.0000
  C   C65       1.0  0.08793905178372004  0.14066015607231336  0.32504004476095744  1.0000
  C   C66       1.0  0.9120609482638187  0.6406601557643038  0.17495995530233502  1.0000
  C   C67       1.0  0.9120609482161391  0.8593398437907718  0.6749599560044748  1.0000
  C   C68       1.0  0.08793905174427162  0.35933984409878134  0.825040044155163  1.0000
  C   C69       1.0  0.9717454606583794  0.16759873157295738  0.22649913798234347  1.0000
  C   C70       1.0  0.02825453938915927  0.6675987312649478  0.273500862080949  1.0000
  C   C71       1.0  0.028254539349710853  0.8324012687692319  0.7735008614751546  1.0000
  C   C72       1.0  0.9717454606107  0.33240126859813734  0.7264991386844832  1.0000
  C   C73       1.0  0.9563064554237004  0.2352290652096231  0.21716305880983322  1.0000
  C   C74       1.0  0.04369354462383829  0.7352290653807178  0.28283694125345926  1.0000
  C   C75       1.0  0.0436935445761589  0.764770934653462  0.7828369419555989  1.0000
  C   C76       1.0  0.9563064553842521  0.2647709344823673  0.7171630582040388  1.0000
  C   C77       1.0  0.0561770277453399  0.2754211708201245  0.3047899230216584  1.0000
  C   C78       1.0  0.9438229723021987  0.7754211709912192  0.19521007704163407  1.0000
  C   C79       1.0  0.9438229722627505  0.7245788290429606  0.6952100764358397  1.0000
  C   C80       1.0  0.05617702769766051  0.22457882935097018  0.8047899237237981  1.0000
  C   C81       1.0  0.17647454370783947  0.2487246852467766  0.40713398591075195  1.0000
  C   C82       1.0  0.8235254563396993  0.7487246849387671  0.09286601415254052  1.0000
  C   C83       1.0  0.8235254563002509  0.7512753150954128  0.5928660135467462  1.0000
  C   C84       1.0  0.17647454366016008  0.2512753149243181  0.9071339866128918  1.0000
  N   N1        1.0  0.2754132580683359  0.2879828495164731  0.4934073087870217  1.0000
  N   N2        1.0  0.7245867419792028  0.7879828496875678  0.0065926912762707445  1.0000
  N   N3        1.0  0.7245867419315234  0.712017150346612  0.5065926919784104  1.0000
  N   N4        1.0  0.27541325802888744  0.21201715065462157  0.9934073081812274  1.0000
  O   O1        1.0  0.2113440515419684  0.4057941269897067  0.46170352081049143  1.0000
  O   O2        1.0  0.7886559485055703  0.9057941266816971  0.03829647925280099  1.0000
  O   O3        1.0  0.788655948466122  0.5942058733524826  0.5382964786470066  1.0000
  O   O4        1.0  0.21134405149428903  0.094205873181388  0.9617035215126312  1.0000
  O   O5        1.0  0.4106883034282912  0.4402107418476785  0.39758743494774323  1.0000
  O   O6        1.0  0.5893116966192474  0.9402107420187732  0.10241256511554922  1.0000
  O   O7        1.0  0.5893116965797991  0.5597892580154067  0.6024125645097548  1.0000
  O   O8        1.0  0.4106883033806119  0.05978925832341618  0.897587435649883  1.0000
  O   O9        1.0  0.3308711864924454  0.5665116791033699  0.4120407375623223  1.0000
  O   O10       1.0  0.6691288135550932  0.06651167941137937  0.08795926250097014  1.0000
  O   O11       1.0  0.6691288135074139  0.4334883207597153  0.5879592632031099  1.0000
  O   O12       1.0  0.330871186452997  0.9334883209308099  0.9120407369565279  1.0000
