data_image0
_chemical_formula_structural       H48C64N20O8F4Cl8
_chemical_formula_sum              "H48 C64 N20 O8 F4 Cl8"
_cell_length_a       13.279921145682934
_cell_length_b       7.9267105696827755
_cell_length_c       15.47899668861515
_cell_angle_alpha    90.0
_cell_angle_beta     91.54399147869601
_cell_angle_gamma    90.0

_space_group_name_H-M_alt    "P 1"
_space_group_IT_number       1

loop_
  _space_group_symop_operation_xyz
  'x, y, z'

loop_
  _atom_site_type_symbol
  _atom_site_label
  _atom_site_symmetry_multiplicity
  _atom_site_fract_x
  _atom_site_fract_y
  _atom_site_fract_z
  _atom_site_occupancy
  H   H1        1.0  0.4239964902391222  0.2881852415221235  0.35505604727647805  1.0000
  H   H2        1.0  0.5760035096063079  0.788185242172912  0.6449439524198283  1.0000
  H   H3        1.0  0.3123636265180734  0.43719760669130747  0.24725495136600478  1.0000
  H   H4        1.0  0.6876363733605177  0.9371976060805386  0.7527450489764786  1.0000
  H   H5        1.0  0.36242155905883217  0.4535053246108193  0.09348727950452149  1.0000
  H   H6        1.0  0.6375784408197591  0.9535053252616078  0.9065127208379619  1.0000
  H   H7        1.0  0.48050483609316236  0.27004067717407065  0.8286820716062979  1.0000
  H   H8        1.0  0.5194951637854288  0.7700406765633018  0.17131792873618554  1.0000
  H   H9        1.0  0.6143534021534754  0.34494596288879326  0.7437847554722974  1.0000
  H   H10       1.0  0.3856465976919547  0.8449459622780244  0.2562152442240091  1.0000
  H   H11       1.0  0.7202519230589667  0.4700195884847479  0.7831733308841311  1.0000
  H   H12       1.0  0.2797480767864635  0.9700195891355363  0.21682666881217533  1.0000
  H   H13       1.0  0.7257619050210938  0.6034097735690904  0.0819328387922433  1.0000
  H   H14       1.0  0.27423809485749734  0.10340977291830199  0.9180671615502402  1.0000
  H   H15       1.0  0.6330087319857588  0.5175072956100333  0.14495261733385612  1.0000
  H   H16       1.0  0.3669912678928325  0.017507294959244833  0.8550473830086273  1.0000
  H   H17       1.0  0.07923899783334046  0.9843106041794392  0.6802955199383133  1.0000
  H   H18       1.0  0.9207610020452507  0.48431060479020804  0.31970448040417  1.0000
  H   H19       1.0  0.18540593480075807  0.8267116305549999  0.7882039098630366  1.0000
  H   H20       1.0  0.8145940650446719  0.32671162990421143  0.21179608983326983  1.0000
  H   H21       1.0  0.12681005079763863  0.7937576583235584  0.9393578945384932  1.0000
  H   H22       1.0  0.8731899490477916  0.29375765893432726  0.06064210515781314  1.0000
  H   H23       1.0  0.8373306342095034  0.8936719560688456  0.27756071228580187  1.0000
  H   H24       1.0  0.16266936563592674  0.39367195667961447  0.7224392874105046  1.0000
  H   H25       1.0  0.738241950069755  0.7794592051375056  0.22832183088457939  1.0000
  H   H26       1.0  0.2617580497756751  0.279459204486717  0.771678168811727  1.0000
  H   H27       1.0  0.7648635411500094  0.6272168355705422  0.9378771254074945  1.0000
  H   H28       1.0  0.23513645869542074  0.12721683491975364  0.062122874288811906  1.0000
  H   H29       1.0  0.8592191631463942  0.708722429135548  0.8755286130104346  1.0000
  H   H30       1.0  0.14078083669903577  0.2087224297463168  0.12447138668587189  1.0000
  H   H31       1.0  0.7468434677546956  0.5467947330608107  0.31113486828619574  1.0000
  H   H32       1.0  0.25315653287645545  0.04679473367157953  0.6888651320452445  1.0000
  H   H33       1.0  0.8347465135152502  0.38753755331361067  0.431516408774125  1.0000
  H   H34       1.0  0.16525348708273968  0.8875375527028417  0.5684835909111383  1.0000
  H   H35       1.0  0.5684482777122394  0.4217667127631474  0.5825013975655876  1.0000
  H   H36       1.0  0.4315517221331907  0.9217667121523786  0.41749860213071877  1.0000
  H   H37       1.0  0.482953823050966  0.5916200848730719  0.46352705231837577  1.0000
  H   H38       1.0  0.5170461767944641  0.09162008422228339  0.5364729473779307  1.0000
  H   H39       1.0  0.7314461083924454  0.7506497831215911  0.6550591692566067  1.0000
  H   H40       1.0  0.2685538914861459  0.25064978373236  0.3449408310858767  1.0000
  H   H41       1.0  0.6871144965358843  0.9198490743294288  0.5206143882251401  1.0000
  H   H42       1.0  0.31288550330954573  0.4198490736786402  0.47938561147116626  1.0000
  H   H43       1.0  0.9873283195391437  0.8382775896239039  0.43090821004458674  1.0000
  H   H44       1.0  0.012671680306286468  0.3382775889731155  0.5690917896517197  1.0000
  H   H45       1.0  0.0297877720228436  0.6727114536507418  0.5663233659118703  1.0000
  H   H46       1.0  0.9702122278557477  0.1727114529999533  0.43367663443061294  1.0000
  H   H47       1.0  0.022139318952935576  0.4859098116602663  0.7917775305549851  1.0000
  H   H48       1.0  0.9778606808924946  0.9859098110494974  0.20822246914132125  1.0000
  C   C1        1.0  0.49735006472016363  0.30767518361624774  0.11420249099621373  1.0000
  C   C2        1.0  0.5026499351252663  0.8076751830054789  0.8857975087000927  1.0000
  C   C3        1.0  0.5561466080228791  0.21460168566090043  0.17426282337333865  1.0000
  C   C4        1.0  0.4438533918557122  0.7146016850501316  0.8257371769691447  1.0000
  C   C5        1.0  0.5292140634561828  0.20793529239026598  0.2611990060098048  1.0000
  C   C6        1.0  0.4707859364224084  0.7079352930410544  0.7388009943326787  1.0000
  C   C7        1.0  0.44205630706633325  0.2903055750264503  0.2869644632432888  1.0000
  C   C8        1.0  0.5579436927790968  0.7903055744156814  0.7130355364530175  1.0000
  C   C9        1.0  0.380675576846011  0.3745905661494121  0.2266725704356453  1.0000
  C   C10       1.0  0.6193244237519789  0.8745905668002005  0.773327429249618  1.0000
  C   C11       1.0  0.40835777265527373  0.3838427218015309  0.14063004065997498  1.0000
  C   C12       1.0  0.5916422279758773  0.8838427224523193  0.8593699596714653  1.0000
  C   C13       1.0  0.536815646093543  0.3392833605261342  0.02749528957599002  1.0000
  C   C14       1.0  0.4631843537518871  0.8392833599153654  0.9725047101203165  1.0000
  C   C15       1.0  0.6176554338861899  0.3964442466234467  0.8720647539909446  1.0000
  C   C16       1.0  0.3823445659592401  0.8964442460126778  0.12793524570536174  1.0000
  C   C17       1.0  0.6276417779258602  0.44024509527911987  0.019310857588240537  1.0000
  C   C18       1.0  0.37235822195273105  0.9402450959299083  0.9806891427542429  1.0000
  C   C19       1.0  0.9920064401689305  0.9383220927035385  0.9166683123959588  1.0000
  C   C20       1.0  0.007993559709660826  0.4383220933143073  0.08333168794652458  1.0000
  C   C21       1.0  0.9356942262640578  0.03561061016654435  0.8566399308903834  1.0000
  C   C22       1.0  0.0643057736145334  0.5356106108173329  0.1433600694521  1.0000
  C   C23       1.0  0.9669926351092455  0.05040865394130201  0.771110369073575  1.0000
  C   C24       1.0  0.03300736476934576  0.5504086545920904  0.2288896312689084  1.0000
  C   C25       1.0  0.05666498625037862  0.9736504155353392  0.747071632909789  1.0000
  C   C26       1.0  0.9433350136282126  0.47365041614610803  0.2529283674326944  1.0000
  C   C27       1.0  0.11529191148460992  0.8851289167583148  0.8075710744158731  1.0000
  C   C28       1.0  0.8847080883939813  0.38512891736908367  0.19242892592661034  1.0000
  C   C29       1.0  0.08310130420271168  0.8667964308270396  0.8920159108785901  1.0000
  C   C30       1.0  0.9168986964284394  0.36679643017625113  0.10798408945285022  1.0000
  C   C31       1.0  0.9478521731810822  0.8990632945849069  0.0009689519233533906  1.0000
  C   C32       1.0  0.05214782666434786  0.3990632939341183  0.999031047772953  1.0000
  C   C33       1.0  0.8548687682234091  0.8414662830646197  0.1496427287550135  1.0000
  C   C34       1.0  0.14513123162202096  0.3414662836753886  0.8503572709412929  1.0000
  C   C35       1.0  0.8595353520503772  0.7906006703422246  0.0032310401210051045  1.0000
  C   C36       1.0  0.14046464782821405  0.29060067095299347  0.9967689602214782  1.0000
  C   C37       1.0  0.5551432894594414  0.6715492098777401  0.3081819862513998  1.0000
  C   C38       1.0  0.44485671117170955  0.17154921048850905  0.6918180140800404  1.0000
  C   C39       1.0  0.6095007593113639  0.5792903449209406  0.380086870373719  1.0000
  C   C40       1.0  0.3904992405672273  0.07929034553170936  0.6199131299687645  1.0000
  C   C41       1.0  0.7085064795334731  0.5218217132615117  0.37104602521240154  1.0000
  C   C42       1.0  0.291493520311957  0.021821713872280612  0.6289539744839048  1.0000
  C   C43       1.0  0.7577829183353924  0.4329108903161743  0.43725026214318496  1.0000
  C   C44       1.0  0.2422170815431989  0.9329108897054055  0.5627497381992984  1.0000
  C   C45       1.0  0.7052608497842205  0.40082258107818747  0.5118645101224181  1.0000
  C   C46       1.0  0.29473915009437057  0.9008225817289759  0.48813549022006525  1.0000
  C   C47       1.0  0.6069050334916409  0.4547315974656877  0.5235775014633324  1.0000
  C   C48       1.0  0.3930949663537892  0.9547315968549188  0.47642249823297406  1.0000
  C   C49       1.0  0.5597438337885657  0.5456513508317856  0.45703135290321034  1.0000
  C   C50       1.0  0.4402561660568644  0.045651350180997176  0.542968646793096  1.0000
  C   C51       1.0  0.9073251431461988  0.6158171876074128  0.7030965229194135  1.0000
  C   C52       1.0  0.09267485748495216  0.1158171869566243  0.2969034774120268  1.0000
  C   C53       1.0  0.8824848206832674  0.7042095369735938  0.6191017748160285  1.0000
  C   C54       1.0  0.11751517919532384  0.20420953758436272  0.3808982255264549  1.0000
  C   C55       1.0  0.7861237168048126  0.771947019663275  0.6053782310543343  1.0000
  C   C56       1.0  0.2138762830737785  0.27194702027404394  0.3946217692881491  1.0000
  C   C57       1.0  0.7614655442371788  0.8644438938148618  0.5314004648047937  1.0000
  C   C58       1.0  0.23853445560825126  0.3644438931640733  0.4685995348915126  1.0000
  C   C59       1.0  0.8360414217050008  0.8859873396741236  0.4713291978941014  1.0000
  C   C60       1.0  0.16395857889298904  0.3859873390233352  0.5286708017911619  1.0000
  C   C61       1.0  0.9322478759492575  0.818256709763981  0.48081240762690974  1.0000
  C   C62       1.0  0.06775212468189341  0.3182567103747499  0.5191875927045305  1.0000
  C   C63       1.0  0.9550018199176037  0.7267383600497146  0.5558710562998459  1.0000
  C   C64       1.0  0.04499817996098755  0.2267383606604835  0.4441289440426374  1.0000
  N   N1        1.0  0.48819733538549437  0.28485493069925005  0.9586805901858962  1.0000
  N   N2        1.0  0.5118026652456567  0.7848549313500385  0.04131941014554407  1.0000
  N   N3        1.0  0.5271449742649719  0.31566665995982457  0.8816240954695402  1.0000
  N   N4        1.0  0.4728550255804583  0.8156666593490557  0.11837590422676614  1.0000
  N   N5        1.0  0.6537568234548996  0.4075674003231949  0.7932731010279817  1.0000
  N   N6        1.0  0.34624317717625147  0.9075674009739834  0.20672689930345867  1.0000
  N   N7        1.0  0.6669962060921266  0.46257951236722666  0.9412206081126399  1.0000
  N   N8        1.0  0.33300379378646444  0.9625795117564577  0.058779392229843505  1.0000
  N   N9        1.0  0.6708913234600862  0.5103737791907171  0.0883992198322844  1.0000
  N   N10       1.0  0.3291086763853439  0.010373779801485903  0.911600779864022  1.0000
  N   N11       1.0  0.9875728073504059  0.9611139227333854  0.07247722619625495  1.0000
  N   N12       1.0  0.012427193280745133  0.46111392334415413  0.9275227741351854  1.0000
  N   N13       1.0  0.9432448599413751  0.9283216682773981  0.14701211734407865  1.0000
  N   N14       1.0  0.05675513990405503  0.42832166888816703  0.8529878823522277  1.0000
  N   N15       1.0  0.8101249774645607  0.8274302502081239  0.22571177126897138  1.0000
  N   N16       1.0  0.18987502241403056  0.32743025081889277  0.774288229073512  1.0000
  N   N17       1.0  0.813229571826709  0.7699307961794598  0.07884821450841188  1.0000
  N   N18       1.0  0.1867704280518822  0.2699307967902288  0.9211517858340714  1.0000
  N   N19       1.0  0.8231943677536135  0.713629806496944  0.9333656733445591  1.0000
  N   N20       1.0  0.17680563284437636  0.21362980710771284  0.06663432634070421  1.0000
  O   O1        1.0  0.6014250148137273  0.6900636603184194  0.2361405917971775  1.0000
  O   O2        1.0  0.39857498506486383  0.19006366092918828  0.7638594085453059  1.0000
  O   O3        1.0  0.4672352817529847  0.7245213193434203  0.3208028675283656  1.0000
  O   O4        1.0  0.5327647188450052  0.22452131869263184  0.6791971321568977  1.0000
  O   O5        1.0  0.841884010420818  0.6118871967586053  0.7611509909988227  1.0000
  O   O6        1.0  0.15811598942461214  0.11188719610781668  0.23884900869748366  1.0000
  O   O7        1.0  0.9962451163727293  0.5530336892539569  0.7104877890038186  1.0000
  O   O8        1.0  0.0037548842252605836  0.05303368860316841  0.2895122106814447  1.0000
  F   F1        1.0  0.7522346214416048  0.31118728233049586  0.5765715862801226  1.0000
  F   F2        1.0  0.24776537840382515  0.8111872829812844  0.42342841341618376  1.0000
  F   F3        1.0  0.8133077158795805  0.9803624002271341  0.398735682427094  1.0000
  F   F4        1.0  0.18669228396584953  0.480362400837903  0.6012643172692125  1.0000
  Cl  Cl1       1.0  0.6607123288941189  0.10854305987791761  0.139103218685526  1.0000
  Cl  Cl2       1.0  0.3392876709844723  0.6085430605287061  0.8608967816569574  1.0000
  Cl  Cl3       1.0  0.6037660815946692  0.1037599938549182  0.3362025643134759  1.0000
  Cl  Cl4       1.0  0.3962339182839222  0.6037599932441493  0.6637974360290075  1.0000
  Cl  Cl5       1.0  0.828711345124059  0.13848281709671784  0.8891842443449034  1.0000
  Cl  Cl6       1.0  0.17128865472137117  0.638482816485949  0.110815755351403  1.0000
  Cl  Cl7       1.0  0.8956894480802886  0.1589224368577411  0.695822169364249  1.0000
  Cl  Cl8       1.0  0.10431055176514134  0.6589224375085296  0.30417783033205736  1.0000
