data_image0
_chemical_formula_structural       H68C72N20O36
_chemical_formula_sum              "H68 C72 N20 O36"
_cell_length_a       10.435596487468795
_cell_length_b       5.066583186542605
_cell_length_c       37.30702053428383
_cell_angle_alpha    89.9998561282231
_cell_angle_beta     89.29895338744969
_cell_angle_gamma    89.9999866259881

_space_group_name_H-M_alt    "P 1"
_space_group_IT_number       1

loop_
  _space_group_symop_operation_xyz
  'x, y, z'

loop_
  _atom_site_type_symbol
  _atom_site_label
  _atom_site_symmetry_multiplicity
  _atom_site_fract_x
  _atom_site_fract_y
  _atom_site_fract_z
  _atom_site_occupancy
  H   H1        1.0  0.8758102222068213  0.9385956224522518  0.3892451109776996  1.0000
  H   H2        1.0  0.12419134384569264  0.4385981530780671  0.11075445930418276  1.0000
  H   H3        1.0  0.12419150945577793  0.06140263577196732  0.61075490105086  1.0000
  H   H4        1.0  0.8758084092167916  0.5614022920267584  0.8892453330682696  1.0000
  H   H5        1.0  0.8319140597055908  0.6111722768729748  0.2831878026456537  1.0000
  H   H6        1.0  0.16808506014810254  0.11117124201085944  0.21681236934304535  1.0000
  H   H7        1.0  0.16808657639831148  0.38882770835353464  0.7168122188421983  1.0000
  H   H8        1.0  0.8319149873538699  0.8888296787597193  0.7831874138024598  1.0000
  H   H9        1.0  0.26814606685576536  0.012759957094221435  0.3234438327311567  1.0000
  H   H10       1.0  0.7318545310924817  0.5127605228158623  0.17655604562332908  1.0000
  H   H11       1.0  0.731852648732677  0.987230787208245  0.6765543269296334  1.0000
  H   H12       1.0  0.26814605734213615  0.48723972294232937  0.8234438611991406  1.0000
  H   H13       1.0  0.5562730216555389  0.39564731336363307  0.3847229688348314  1.0000
  H   H14       1.0  0.44372763013006056  0.895647793577281  0.11527707264273518  1.0000
  H   H15       1.0  0.44373133740671455  0.6043436757014262  0.6152727163542404  1.0000
  H   H16       1.0  0.5562726657534487  0.1043542107631397  0.884722773977918  1.0000
  H   H17       1.0  0.4441602741930914  0.7114927643269562  0.41691219472626345  1.0000
  H   H18       1.0  0.5558412965020352  0.2114934347582724  0.0830876976928001  1.0000
  H   H19       1.0  0.5558414896300459  0.2884974628666099  0.583085366713989  1.0000
  H   H20       1.0  0.44415934426308584  0.7885085577387598  0.9169122581154914  1.0000
  H   H21       1.0  0.533176660686931  0.3525774137661761  0.3184286660559756  1.0000
  H   H22       1.0  0.46682299739854444  0.8525784265455254  0.18157149105352516  1.0000
  H   H23       1.0  0.46682035178623976  0.6474221491143565  0.6815682705336192  1.0000
  H   H24       1.0  0.5331772739087058  0.14742317515713002  0.8184283078854246  1.0000
  H   H25       1.0  0.23064757117141382  0.17200775049688508  0.3817290239515756  1.0000
  H   H26       1.0  0.7693545229680219  0.6720088935119862  0.11827082008580922  1.0000
  H   H27       1.0  0.7693519687965218  0.8279830194540078  0.6182701827326699  1.0000
  H   H28       1.0  0.2306458678531026  0.3279924634493496  0.8817290239995927  1.0000
  H   H29       1.0  0.31400786627452454  0.8195906651670546  0.2661863786082635  1.0000
  H   H30       1.0  0.6859916465662208  0.3195916585393341  0.2338135542747683  1.0000
  H   H31       1.0  0.6859891464985725  0.1804207636838583  0.7338121322590279  1.0000
  H   H32       1.0  0.3140084079636126  0.6804096589477615  0.7661862875653606  1.0000
  H   H33       1.0  0.341348780531688  0.4751720019675644  0.26805582627994956  1.0000
  H   H34       1.0  0.6586503523918646  0.975172034068687  0.23194443381173663  1.0000
  H   H35       1.0  0.6586459158316962  0.5248451842363749  0.7319404399531683  1.0000
  H   H36       1.0  0.34134994667284874  0.024828999203206147  0.7680554015467034  1.0000
  H   H37       1.0  0.47290529015315935  0.6909455500377579  0.2619634138656971  1.0000
  H   H38       1.0  0.5270936533860933  0.19094608840738397  0.2380364819637137  1.0000
  H   H39       1.0  0.5270886112180506  0.3090664729153465  0.7380337194791491  1.0000
  H   H40       1.0  0.47290635219430005  0.809054830389243  0.7619633275053251  1.0000
  H   H41       1.0  0.6196519431387328  0.028260047630971924  0.4226739540998965  1.0000
  H   H42       1.0  0.38034814588973476  0.5282581173549313  0.07732536665363858  1.0000
  H   H43       1.0  0.3803474941455371  0.9717429396316806  0.5773246943590641  1.0000
  H   H44       1.0  0.6196528926699525  0.4717434034240807  0.9226745497720671  1.0000
  H   H45       1.0  0.8706012305669898  0.15511136122309666  0.5128964570287543  1.0000
  H   H46       1.0  0.12939860126830044  0.6551099525447721  0.9871030749696139  1.0000
  H   H47       1.0  0.1293975938638797  0.8448908108886214  0.4871028446665591  1.0000
  H   H48       1.0  0.8705994845847493  0.3448958808029039  0.012897168817982883  1.0000
  H   H49       1.0  0.5803900098828844  0.5825066075988536  0.5178285720090738  1.0000
  H   H50       1.0  0.41961043348057636  0.08251022952157686  0.9821707763854712  1.0000
  H   H51       1.0  0.419610299837229  0.4174927796073736  0.4821697442748421  1.0000
  H   H52       1.0  0.5803885883591948  0.9174960755477052  0.017829088770824588  1.0000
  H   H53       1.0  0.7504129515306323  0.8003192682199802  0.5452328856933866  1.0000
  H   H54       1.0  0.24958749372541866  0.30032096808898406  0.9547666452405322  1.0000
  H   H55       1.0  0.24958601804898536  0.19967917159581028  0.45476615285389616  1.0000
  H   H56       1.0  0.7504101839180992  0.6996814704692771  0.04523324578104456  1.0000
  H   H57       1.0  0.9239795033034081  0.2620418657978961  0.43957206649958397  1.0000
  H   H58       1.0  0.07601996428012646  0.7620417121623886  0.060427631071052854  1.0000
  H   H59       1.0  0.07601924673286853  0.737959461558296  0.560427750759662  1.0000
  H   H60       1.0  0.9239800712848133  0.23795757437059076  0.9395721681734092  1.0000
  H   H61       1.0  0.8297274584644537  0.5123838526629808  0.45942090837302585  1.0000
  H   H62       1.0  0.17027260223269147  0.012384889865033014  0.040578571672350953  1.0000
  H   H63       1.0  0.17027199065580798  0.4876145516187538  0.5405788902903466  1.0000
  H   H64       1.0  0.8297277886519451  0.9876175506677896  0.9594211643870942  1.0000
  H   H65       1.0  0.7810484645808082  0.36821623159015127  0.4181122806410282  1.0000
  H   H66       1.0  0.2189520654661103  0.8682148595548845  0.08188728245417622  1.0000
  H   H67       1.0  0.21895190974494314  0.6317876734417044  0.5818873243612809  1.0000
  H   H68       1.0  0.7810479353308861  0.131787780318814  0.9181129494735858  1.0000
  C   C1        1.0  0.05237530034677494  0.43980470760657603  0.34867927963236617  1.0000
  C   C2        1.0  0.9476243862772141  0.9398054419476412  0.15132029508413303  1.0000
  C   C3        1.0  0.9476255875554895  0.5601936216747322  0.6513203978848664  1.0000
  C   C4        1.0  0.05237549612588234  0.06019516697498255  0.8486795686912577  1.0000
  C   C5        1.0  0.9833143934059395  0.453228044881232  0.3149533002394719  1.0000
  C   C6        1.0  0.01668497772819136  0.9532288226641557  0.1850465413281674  1.0000
  C   C7        1.0  0.016686421369443954  0.5467711488875915  0.6850464234775187  1.0000
  C   C8        1.0  0.983314992933518  0.04677205665767392  0.8149533188482455  1.0000
  C   C9        1.0  0.8803285405535173  0.6156881722610063  0.3088686284016184  1.0000
  C   C10       1.0  0.11967066664216161  0.11568835927047856  0.1911314483890962  1.0000
  C   C11       1.0  0.11967227847061143  0.38431118729787606  0.6911313266402939  1.0000
  C   C12       1.0  0.8803293257917878  0.8843124411032394  0.8088683511789866  1.0000
  C   C13       1.0  0.8418029488779253  0.790193873698495  0.3361022636765863  1.0000
  C   C14       1.0  0.15819706674185047  0.2901945174834532  0.16389763216787365  1.0000
  C   C15       1.0  0.15819688980484  0.20980307792519934  0.6638977982477874  1.0000
  C   C16       1.0  0.8418028105833085  0.7098061467041225  0.8361021364549731  1.0000
  C   C17       1.0  0.9061721655217371  0.801264051687454  0.36847196026973666  1.0000
  C   C18       1.0  0.09382897253502537  0.30126559048842594  0.1315275944900843  1.0000
  C   C19       1.0  0.09382896312583387  0.19873473154643717  0.6315279557717803  1.0000
  C   C20       1.0  0.9061707532574865  0.698735022382178  0.8684722140008642  1.0000
  C   C21       1.0  0.008753406998353216  0.6349457239899994  0.37476131662314355  1.0000
  C   C22       1.0  0.9912475644172635  0.13494632832520675  0.12523821684341246  1.0000
  C   C23       1.0  0.9912477230950882  0.3650525658165091  0.6252384053456185  1.0000
  C   C24       1.0  0.008752243559058967  0.8650542529655073  0.8747616352339447  1.0000
  C   C25       1.0  0.35088904945221905  0.8852362341098673  0.3728709536570561  1.0000
  C   C26       1.0  0.6491125743190739  0.3852359817220868  0.12712880488974304  1.0000
  C   C27       1.0  0.6491127307068224  0.11475228581481796  0.6271270288748982  1.0000
  C   C28       1.0  0.3508889241509967  0.6147635377090207  0.8728710080083772  1.0000
  C   C29       1.0  0.4943111902877901  0.5244719541776226  0.36938821017366363  1.0000
  C   C30       1.0  0.5056893380313735  0.024472422198174856  0.1306117463171294  1.0000
  C   C31       1.0  0.5056877512125607  0.4755192144875334  0.630608478651388  1.0000
  C   C32       1.0  0.4943108589428365  0.9755290393700958  0.8693881079371402  1.0000
  C   C33       1.0  0.4800919128376098  0.5044117047209961  0.33296383258367424  1.0000
  C   C34       1.0  0.5199084338701699  0.004412856678739726  0.1670362293318243  1.0000
  C   C35       1.0  0.5199042712345007  0.4955835613864088  0.6670322400691564  1.0000
  C   C36       1.0  0.4800922121406692  0.9955890095018826  0.8329635688540515  1.0000
  C   C37       1.0  0.39714460352919984  0.6821837740849869  0.3153882824890229  1.0000
  C   C38       1.0  0.602855611343916  0.18218476116879048  0.18461169723159018  1.0000
  C   C39       1.0  0.6028528485464951  0.31781531115395767  0.6846088744080296  1.0000
  C   C40       1.0  0.3971449625817723  0.8178160174932025  0.8153881793194857  1.0000
  C   C41       1.0  0.33294477240702314  0.8717607557560397  0.33567121775540815  1.0000
  C   C42       1.0  0.6670560626877223  0.371761931176179  0.1643287409963139  1.0000
  C   C43       1.0  0.6670554669949499  0.12823128922514906  0.6643269710271472  1.0000
  C   C44       1.0  0.3329450212768116  0.6282386797195354  0.8356711619680883  1.0000
  C   C45       1.0  0.380019438605999  0.668111316063982  0.27576767138072533  1.0000
  C   C46       1.0  0.6199799913305418  0.16811259494261702  0.2242323736438167  1.0000
  C   C47       1.0  0.6199770815104368  0.33189770091528714  0.7242297512899891  1.0000
  C   C48       1.0  0.3800201921732905  0.8318886120165065  0.7757674473892567  1.0000
  C   C49       1.0  0.5850447001497353  0.7837973847055408  0.46905338517875717  1.0000
  C   C50       1.0  0.41495473963717155  0.2837971338432186  0.030945971579062297  1.0000
  C   C51       1.0  0.4149558995276931  0.2162014952530002  0.5309451923504868  1.0000
  C   C52       1.0  0.5850447675164246  0.7162065580277671  0.9690535959459049  1.0000
  C   C53       1.0  0.6513438215090824  0.9845738125313913  0.4497559900819568  1.0000
  C   C54       1.0  0.34865556383720414  0.4845734477928948  0.05024361565482586  1.0000
  C   C55       1.0  0.3486553649426438  0.015426711529649023  0.5502430020790189  1.0000
  C   C56       1.0  0.6513456316799149  0.5154286276004165  0.9497563080731443  1.0000
  C   C57       1.0  0.7534970499329675  0.11908075576883942  0.4645765085877134  1.0000
  C   C58       1.0  0.24650151128712733  0.6190794737186002  0.035423451551588034  1.0000
  C   C59       1.0  0.24650026472864686  0.8809204985637793  0.5354229170263249  1.0000
  C   C60       1.0  0.7534989954594157  0.38092107993770546  0.9645766400656411  1.0000
  C   C61       1.0  0.7921599621649649  0.053705542534574206  0.4997615593612177  1.0000
  C   C62       1.0  0.2078400576567692  0.5537053208406196  0.0002382575836923482  1.0000
  C   C63       1.0  0.20783899760961927  0.9462942887494769  0.5002376987346  1.0000
  C   C64       1.0  0.7921597296668003  0.4462980394388269  0.9997620719237815  1.0000
  C   C65       1.0  0.727318041329707  0.8597515483013624  0.5180910777850377  1.0000
  C   C66       1.0  0.27268199640880353  0.3597531727756182  0.9819084157969927  1.0000
  C   C67       1.0  0.2726805157362053  0.14024455266069003  0.4819079071496826  1.0000
  C   C68       1.0  0.7273172100607515  0.6402482947147901  0.018091355302322424  1.0000
  C   C69       1.0  0.8246634845325055  0.32767309782481163  0.44410847751207866  1.0000
  C   C70       1.0  0.17533640354774493  0.8276723336411956  0.055891082761996606  1.0000
  C   C71       1.0  0.17533581101549361  0.6723287288842956  0.5558910484706883  1.0000
  C   C72       1.0  0.8246641084860511  0.1723297397771602  0.9441089906204714  1.0000
  N   N1        1.0  0.021030455136612853  0.27506652297465245  0.28592634571507014  1.0000
  N   N2        1.0  0.9789672015507551  0.7750640328297325  0.2140732867829604  1.0000
  N   N3        1.0  0.9789697180822102  0.724933689231982  0.714073395451445  1.0000
  N   N4        1.0  0.021032871846214347  0.22493661556728575  0.7859265660230693  1.0000
  N   N5        1.0  0.7329192944617231  0.9599099085751264  0.3310304907774968  1.0000
  N   N6        1.0  0.2670807299635754  0.4599100475642005  0.16896954228210048  1.0000
  N   N7        1.0  0.26708267174114103  0.04009082469006744  0.6689694946778048  1.0000
  N   N8        1.0  0.73291931388858  0.5400900797729695  0.8310301636687625  1.0000
  N   N9        1.0  0.06870726366820841  0.6589839325431404  0.4094562123856135  1.0000
  N   N10       1.0  0.931294695973831  0.15898357043338385  0.09054317224883368  1.0000
  N   N11       1.0  0.9312945281863625  0.3410131848756752  0.5905434891589073  1.0000
  N   N12       1.0  0.06870503554976153  0.841016588482038  0.9094566721539864  1.0000
  N   N13       1.0  0.43044427009779074  0.7106361506958584  0.38859662695390074  1.0000
  N   N14       1.0  0.5695570441508829  0.21063631949400732  0.11140343174539868  1.0000
  N   N15       1.0  0.5695598647275103  0.2893524856822423  0.6114008550225174  1.0000
  N   N16       1.0  0.43044363053297896  0.7893646861441282  0.8885965805785164  1.0000
  N   N17       1.0  0.6276849140814668  0.7308401447088857  0.5029868038867693  1.0000
  N   N18       1.0  0.37231548723062946  0.23084126588273376  0.9970127418588273  1.0000
  N   N19       1.0  0.3723143800326902  0.26915851024740356  0.4970116474706173  1.0000
  N   N20       1.0  0.6276849386882241  0.7691611568841997  0.0029872563119147893  1.0000
  O   O1        1.0  0.13559324864007455  0.2645533586326528  0.3537027847883239  1.0000
  O   O2        1.0  0.8644072825514371  0.764555734367399  0.14629679877372467  1.0000
  O   O3        1.0  0.864407590364854  0.7354445463005406  0.6462967879832234  1.0000
  O   O4        1.0  0.1355927737377436  0.23544483113324158  0.8537030840764896  1.0000
  O   O5        1.0  0.1365955003417486  0.2267408662420054  0.28128787912564646  1.0000
  O   O6        1.0  0.8634033974892186  0.726733451632842  0.21871104041581946  1.0000
  O   O7        1.0  0.8634053919112945  0.7732598314995546  0.7187117793537312  1.0000
  O   O8        1.0  0.1365967665746404  0.27326699741864097  0.7812888259436398  1.0000
  O   O9        1.0  0.934050601689798  0.18326608431230662  0.26717760608656793  1.0000
  O   O10       1.0  0.06594774962313152  0.6832658951360425  0.2328228168951885  1.0000
  O   O11       1.0  0.0659496515764478  0.8167336403851453  0.7328222572089684  1.0000
  O   O12       1.0  0.9340524594413692  0.3167346999707824  0.7671770156312204  1.0000
  O   O13       1.0  0.6735587452529344  0.9462538614033311  0.3024014990642542  1.0000
  O   O14       1.0  0.3264409520497566  0.4462544421090215  0.19759846534250738  1.0000
  O   O15       1.0  0.3264438767080057  0.053749956784666306  0.6975980877499093  1.0000
  O   O16       1.0  0.6735596773524556  0.5537445424470303  0.8024011331652565  1.0000
  O   O17       1.0  0.7025598616847591  0.11261851329297366  0.35616290423142133  1.0000
  O   O18       1.0  0.2974406438867729  0.6126191335397413  0.14383711831067325  1.0000
  O   O19       1.0  0.2974421396336488  0.8873824607661912  0.643837023278764  1.0000
  O   O20       1.0  0.7025590802339204  0.3873816668343627  0.8561626459535264  1.0000
  O   O21       1.0  0.16187217812342095  0.515118389859865  0.4164065861155774  1.0000
  O   O22       1.0  0.8381315105994965  0.0151154696885769  0.08359263472697669  1.0000
  O   O23       1.0  0.8381289895449939  0.4848776084619073  0.583593093184383  1.0000
  O   O24       1.0  0.16186837416811714  0.9848848589660966  0.9164072478091689  1.0000
  O   O25       1.0  0.02397620803217409  0.8236252264317344  0.4311207628251328  1.0000
  O   O26       1.0  0.9760267217378743  0.32362670918098974  0.06887895062597209  1.0000
  O   O27       1.0  0.9760273710503644  0.1763729370549434  0.568879112785434  1.0000
  O   O28       1.0  0.023973116627074055  0.6763734971034449  0.9311209115981622  1.0000
  O   O29       1.0  0.2972514093445898  0.05887166857355204  0.3948542166315196  1.0000
  O   O30       1.0  0.7027514918183306  0.5588686472315454  0.1051453728811932  1.0000
  O   O31       1.0  0.7027498951988448  0.9411114453439468  0.6051434603994723  1.0000
  O   O32       1.0  0.2972487964352936  0.4411319222168264  0.8948544724093098  1.0000
  O   O33       1.0  0.48988642143463473  0.6512248871622084  0.4569731402793841  1.0000
  O   O34       1.0  0.5101136088565656  0.15122499237389503  0.04302667864186516  1.0000
  O   O35       1.0  0.5101154977005434  0.34877207039526925  0.5430255105974953  1.0000
  O   O36       1.0  0.48988482212948653  0.8487781034342088  0.9569729605061783  1.0000
