data_image0
_chemical_formula_structural       H34C14N6O2S2
_chemical_formula_sum              "H34 C14 N6 O2 S2"
_cell_length_a       6.069254670379549
_cell_length_b       9.230166063408587
_cell_length_c       9.473952382454124
_cell_angle_alpha    83.059256190052
_cell_angle_beta     73.95887778666012
_cell_angle_gamma    76.15287787238299

_space_group_name_H-M_alt    "P 1"
_space_group_IT_number       1

loop_
  _space_group_symop_operation_xyz
  'x, y, z'

loop_
  _atom_site_type_symbol
  _atom_site_label
  _atom_site_symmetry_multiplicity
  _atom_site_fract_x
  _atom_site_fract_y
  _atom_site_fract_z
  _atom_site_occupancy
  H   H1        1.0  0.5689191700679629  0.42531461439737556  0.6980535162538462  1.0000
  H   H2        1.0  0.4310808305921925  0.5746853856548604  0.30194648412931024  1.0000
  H   H3        1.0  0.8464661187560902  0.44191711315882337  0.5863711375598001  1.0000
  H   H4        1.0  0.1535338801898615  0.5580828868928329  0.4136288631280138  1.0000
  H   H5        1.0  0.2720416613898593  0.9175800739897857  0.7251552379443641  1.0000
  H   H6        1.0  0.7279583392675099  0.08241992606521396  0.27484476138343833  1.0000
  H   H7        1.0  0.10503359074077645  0.8806021557950233  0.6097264803152109  1.0000
  H   H8        1.0  0.8949664099165927  0.11939784425997649  0.3902735190125914  1.0000
  H   H9        1.0  0.39475976253187783  0.9117534599917139  0.5315463912175009  1.0000
  H   H10       1.0  0.6052402381282773  0.08824654006052216  0.4684536091656556  1.0000
  H   H11       1.0  0.22408730371938945  0.5118031577295553  0.6846470751093439  1.0000
  H   H12       1.0  0.7759126969379798  0.48819684232544447  0.31535292421845856  1.0000
  H   H13       1.0  0.03267763947583111  0.6817393951462567  0.7469811695049029  1.0000
  H   H14       1.0  0.9673223611843241  0.31826060490597924  0.25301883087825355  1.0000
  H   H15       1.0  0.24359642268662746  0.5867770134379486  0.8456588007521171  1.0000
  H   H16       1.0  0.7564035779735279  0.4132229866142874  0.1543411996310394  1.0000
  H   H17       1.0  0.37654191971903167  0.2343076136475541  0.7171695214876361  1.0000
  H   H18       1.0  0.6234580792241338  0.7656923864068661  0.28283047814482365  1.0000
  H   H19       1.0  0.9836279674790687  0.07413373633913309  0.8686921014724  1.0000
  H   H20       1.0  0.016372033181086647  0.9258662637131029  0.13130789891075642  1.0000
  H   H21       1.0  0.8728568541732995  0.2709585224684871  0.8450100630632588  1.0000
  H   H22       1.0  0.12714314648406977  0.7290414775865126  0.15498993626454363  1.0000
  H   H23       1.0  0.7943996790243681  0.14435976647391008  0.6558965813952558  1.0000
  H   H24       1.0  0.2056003216357871  0.855640233578326  0.34410341898790076  1.0000
  H   H25       1.0  0.6567658884649101  0.020003226394348657  0.7916383558656465  1.0000
  H   H26       1.0  0.34323411219524536  0.9799967736578872  0.20836164451750994  1.0000
  H   H27       1.0  0.5035607185055467  0.3781420592216031  0.02220262394047706  1.0000
  H   H28       1.0  0.49643928044040503  0.6218579408300532  0.9777973767473368  1.0000
  H   H29       1.0  0.37361359864144117  0.2503702455753543  0.15931723450995663  1.0000
  H   H30       1.0  0.6263864003017242  0.7496297544790659  0.8406827651225032  1.0000
  H   H31       1.0  0.2784039378746486  0.13049748320708537  0.9725418220823457  1.0000
  H   H32       1.0  0.7215960610713031  0.8695025168445709  0.027458178605468002  1.0000
  H   H33       1.0  0.1658612880971721  0.3272246575284317  0.9550214955144878  1.0000
  H   H34       1.0  0.8341387125629831  0.6727753425238043  0.044978504868668695  1.0000
  C   C1        1.0  0.6034597900605718  0.6384913720112838  0.593287107933267  1.0000
  C   C2        1.0  0.39654021059679745  0.36150862804371603  0.4067128913945355  1.0000
  C   C3        1.0  0.28175373138310583  0.8625774972578069  0.6262680282779157  1.0000
  C   C4        1.0  0.7182462692742634  0.13742250279719298  0.37373197104988665  1.0000
  C   C5        1.0  0.21108950718470562  0.6152604511182226  0.7357530045116261  1.0000
  C   C6        1.0  0.7889104934726636  0.3847395489367772  0.26424699481617625  1.0000
  C   C7        1.0  0.823423197242132  0.16125964250920238  0.8742131451929788  1.0000
  C   C8        1.0  0.17657680341802326  0.8387403575430336  0.12578685519017768  1.0000
  C   C9        1.0  0.6886436930933927  0.13468962127728007  0.7698432608009061  1.0000
  C   C10       1.0  0.311356305852559  0.8653103787743762  0.23015673988690782  1.0000
  C   C11       1.0  0.4688359917019211  0.2639754810000362  0.04345449657264339  1.0000
  C   C12       1.0  0.5311640072412446  0.7360245190543838  0.9565455030598164  1.0000
  C   C13       1.0  0.32795767057653014  0.23996252447516486  0.9416103372398423  1.0000
  C   C14       1.0  0.6720423283666355  0.7600374755792553  0.05838966239261761  1.0000
  N   N1        1.0  0.37326496225087713  0.702488884579599  0.6431323474534971  1.0000
  N   N2        1.0  0.626735038409278  0.297511115472637  0.35686765292965944  1.0000
  N   N3        1.0  0.675388157405058  0.49390526579404825  0.6321351774480113  1.0000
  N   N4        1.0  0.32461184154089384  0.506094734257608  0.3678648232398026  1.0000
  N   N5        1.0  0.46899397313573465  0.24823447593865752  0.7890762979798243  1.0000
  N   N6        1.0  0.5310060275244206  0.7517655241135784  0.21092370240333227  1.0000
  O   O1        1.0  0.6875866033786991  0.1568611395109821  0.024604634794962672  1.0000
  O   O2        1.0  0.3124133955672527  0.8431388605406742  0.9753953658928511  1.0000
  S   S1        1.0  0.8022476946605774  0.7368451510332691  0.4845540300262623  1.0000
  S   S2        1.0  0.19775230599957766  0.2631548490189669  0.5154459703568941  1.0000
