data_image0
_chemical_formula_structural       C22N4O2I4
_chemical_formula_sum              "C22 N4 O2 I4"
_cell_length_a       7.105136252064967
_cell_length_b       7.836520270309249
_cell_length_c       8.629512102051567
_cell_angle_alpha    88.24636299241956
_cell_angle_beta     84.87281121794642
_cell_angle_gamma    118.92244483976948

_space_group_name_H-M_alt    "P 1"
_space_group_IT_number       1

loop_
  _space_group_symop_operation_xyz
  'x, y, z'

loop_
  _atom_site_type_symbol
  _atom_site_label
  _atom_site_symmetry_multiplicity
  _atom_site_fract_x
  _atom_site_fract_y
  _atom_site_fract_z
  _atom_site_occupancy
  C   C1        1.0  0.5192912112186182  0.4811288076986402  0.2563360081228631  1.0000
  C   C2        1.0  0.4807087894252712  0.5188711915823855  0.7436639915136171  1.0000
  C   C3        1.0  0.39462696430095207  0.2842732757247575  0.3149446595929572  1.0000
  C   C4        1.0  0.6053730363166528  0.7157267235211091  0.6850553412048983  1.0000
  C   C5        1.0  0.18580816557449328  0.16545352995089302  0.4128258789446031  1.0000
  C   C6        1.0  0.8141918336145554  0.8345464692488233  0.5871741207936805  1.0000
  C   C7        1.0  0.13333776638034067  0.9622279870725302  0.4095464101120421  1.0000
  C   C8        1.0  0.8666622342635488  0.03777201220849537  0.590453589524438  1.0000
  C   C9        1.0  0.9599434962188768  0.7964249655637106  0.49189714842423127  1.0000
  C   C10       1.0  0.040056502970171826  0.2035750336360058  0.5081028513140522  1.0000
  C   C11       1.0  0.8377470267785723  0.3151758042908813  0.1219296219525841  1.0000
  C   C12       1.0  0.16225297386531737  0.6848241949901445  0.8780703776838962  1.0000
  C   C13       1.0  0.6719107948162608  0.17240246061084002  0.21421885261191717  1.0000
  C   C14       1.0  0.3280892050575289  0.8275975400142033  0.7857811482223078  1.0000
  C   C15       1.0  0.5416230226339845  0.8365778412204453  0.23390786403343142  1.0000
  C   C16       1.0  0.45837697652877935  0.16342215794411172  0.7660921368662272  1.0000
  C   C17       1.0  0.327371851756076  0.8159762912805407  0.2500783806979417  1.0000
  C   C18       1.0  0.6726281481439983  0.1840237093796617  0.749921618974908  1.0000
  C   C19       1.0  0.24796516507523345  0.6163176520944524  0.2970448294015468  1.0000
  C   C20       1.0  0.7520348355686561  0.3836823471865734  0.7029551702349334  1.0000
  C   C21       1.0  0.4601107852492923  0.6258204928638132  0.2596533232433435  1.0000
  C   C22       1.0  0.539889214650782  0.3741795077963889  0.7403466764295062  1.0000
  N   N1        1.0  0.46566601470212377  0.149256923887893  0.27205280645342556  1.0000
  N   N2        1.0  0.5343339844869247  0.8507430753118232  0.727947193284858  1.0000
  N   N3        1.0  0.2993182763437756  0.9605243008001135  0.31051099613090755  1.0000
  N   N4        1.0  0.7006817228452731  0.03947569839960271  0.6894890036073759  1.0000
  O   O1        1.0  0.6989219904414249  0.006740965466934526  0.2718574304602201  1.0000
  O   O2        1.0  0.3010780087476235  0.9932590337327817  0.7281425692780633  1.0000
  I   I1        1.0  0.18952686951139855  0.4324688820224847  0.9181007899495102  1.0000
  I   I2        1.0  0.8104731303623911  0.5675311186025586  0.08189921088471486  1.0000
  I   I3        1.0  0.9999999998231798  0.9999999998280638  5.133995450989914e-10  1.0000
  I   I4        1.0  0.9999999992871537  0.4999999997178805  0.5000000002731422  1.0000
