data_image0
_chemical_formula_structural       H16C20N6O4F2
_chemical_formula_sum              "H16 C20 N6 O4 F2"
_cell_length_a       5.427824787581328
_cell_length_b       8.733156065468636
_cell_length_c       10.337948657000014
_cell_angle_alpha    108.01144605365167
_cell_angle_beta     97.91426803065018
_cell_angle_gamma    94.07188760089178

_space_group_name_H-M_alt    "P 1"
_space_group_IT_number       1

loop_
  _space_group_symop_operation_xyz
  'x, y, z'

loop_
  _atom_site_type_symbol
  _atom_site_label
  _atom_site_symmetry_multiplicity
  _atom_site_fract_x
  _atom_site_fract_y
  _atom_site_fract_z
  _atom_site_occupancy
  H   H1        1.0  0.685307275604785  0.41938151262609097  0.012501596595900265  1.0000
  H   H2        1.0  0.3146927242144067  0.5806184873305686  0.9874984033228869  1.0000
  H   H3        1.0  0.4350275404815233  0.5217105858172351  0.38398103125230504  1.0000
  H   H4        1.0  0.5649724593376685  0.4782894141394245  0.6160189686664821  1.0000
  H   H5        1.0  0.01238402369027979  0.2742360468278658  0.08485058605822818  1.0000
  H   H6        1.0  0.9876159761289119  0.7257639531287938  0.915149413860559  1.0000
  H   H7        1.0  0.10216683793131973  0.7262092444458937  0.16284425331841285  1.0000
  H   H8        1.0  0.8978331618878721  0.27379075551076604  0.8371557466003744  1.0000
  H   H9        1.0  0.026152177148804277  0.7621927446477884  0.4002076413608966  1.0000
  H   H10       1.0  0.9738478226703875  0.23780725530887128  0.5997923585578905  1.0000
  H   H11       1.0  0.6711352969611682  0.9161852932715194  0.4820949273736622  1.0000
  H   H12       1.0  0.3288647028580235  0.08381470668514017  0.5179050725451249  1.0000
  H   H13       1.0  0.41340448534238383  0.028203883065409645  0.3188140651451053  1.0000
  H   H14       1.0  0.5865955144768079  0.9717961168912499  0.6811859347736818  1.0000
  H   H15       1.0  0.3150337018144688  0.060160419742870445  0.09961957942084088  1.0000
  H   H16       1.0  0.6849662982149147  0.9398395814266628  0.9003804208290848  1.0000
  C   C1        1.0  0.8882426606395087  0.32911287611117845  0.1565915600639312  1.0000
  C   C2        1.0  0.11175733917968297  0.6708871238454811  0.8434084398548559  1.0000
  C   C3        1.0  0.9073677746254011  0.318972894418875  0.28582725492136934  1.0000
  C   C4        1.0  0.0926322251937907  0.6810271055377846  0.7141727449974178  1.0000
  C   C5        1.0  0.7372302324112127  0.38854656713726027  0.3766653098676812  1.0000
  C   C6        1.0  0.26276976740797914  0.6114534328193995  0.6233346900511059  1.0000
  C   C7        1.0  0.5314679296226449  0.4768648864259028  0.18860645891800953  1.0000
  C   C8        1.0  0.46853207019654686  0.5231351135307569  0.8113935410007774  1.0000
  C   C9        1.0  0.950578782775937  0.793797875416261  0.19971794804141987  1.0000
  C   C10       1.0  0.049421217043254646  0.20620212454039852  0.8002820518773672  1.0000
  C   C11       1.0  0.9086489205733159  0.8138802051538555  0.3341696417910013  1.0000
  C   C12       1.0  0.09135107924587564  0.1861197948028042  0.6658303581277858  1.0000
  C   C13       1.0  0.7120555108262704  0.8988456329340304  0.3787629251627098  1.0000
  C   C14       1.0  0.2879444889929214  0.10115436702262921  0.6212370747560773  1.0000
  C   C15       1.0  0.5688447710259529  0.9605231355443677  0.2887472507339945  1.0000
  C   C16       1.0  0.43115523065516037  0.03947686442255933  0.7112527493222226  1.0000
  C   C17       1.0  0.6245243789613847  0.9352997669805698  0.1554439937355835  1.0000
  C   C18       1.0  0.3754756208578069  0.0647002329760898  0.8445560061832037  1.0000
  C   C19       1.0  0.47559427201123883  0.002255795340129175  0.06278289485436632  1.0000
  C   C20       1.0  0.5244057278079528  0.9977442046165305  0.9372171050644208  1.0000
  N   N1        1.0  0.7043145777238838  0.4078666658862377  0.11070301104373419  1.0000
  N   N2        1.0  0.29568542209530796  0.592133334070422  0.8892969888750529  1.0000
  N   N3        1.0  0.5572166628286965  0.4646609550506244  0.31918459137294275  1.0000
  N   N4        1.0  0.4427833369904952  0.5353390449060352  0.6808154085458443  1.0000
  N   N5        1.0  0.8144273476303745  0.8512613043802002  0.11111245446900543  1.0000
  N   N6        1.0  0.18557265218881736  0.14873869557645952  0.8888875454497818  1.0000
  O   O1        1.0  0.3607811492737151  0.5452832058835445  0.144424402799846  1.0000
  O   O2        1.0  0.6392188505454767  0.45471679407311516  0.8555755971189409  1.0000
  O   O3        1.0  0.743262279127881  0.3825033569008617  0.49622806910375783  1.0000
  O   O4        1.0  0.25673772069131073  0.6174966430557979  0.5037719308150292  1.0000
  F   F1        1.0  0.08850942082666985  0.24086825757753103  0.3337047360427516  1.0000
  F   F2        1.0  0.911490578992522  0.7591317423791286  0.6662952638760355  1.0000
