data_image0
_chemical_formula_structural       H80C72N16O32
_chemical_formula_sum              "H80 C72 N16 O32"
_cell_length_a       8.817573224710703
_cell_length_b       5.082842983125107
_cell_length_c       42.879692498864316
_cell_angle_alpha    90.0
_cell_angle_beta     93.15352524549597
_cell_angle_gamma    90.0

_space_group_name_H-M_alt    "P 1"
_space_group_IT_number       1

loop_
  _space_group_symop_operation_xyz
  'x, y, z'

loop_
  _atom_site_type_symbol
  _atom_site_label
  _atom_site_symmetry_multiplicity
  _atom_site_fract_x
  _atom_site_fract_y
  _atom_site_fract_z
  _atom_site_occupancy
  H   H1        1.0  0.4214127937154362  0.41872569289784306  0.11123562414162262  1.0000
  H   H2        1.0  0.5785872053278972  0.41872569289784306  0.8887643759728645  1.0000
  H   H3        1.0  0.6915698416197213  0.9673496282147456  0.13508023850109807  1.0000
  H   H4        1.0  0.30843015742225144  0.9673496282147456  0.8649197613801629  1.0000
  H   H5        1.0  0.801249104653039  0.6211167904421363  0.028114308463638174  1.0000
  H   H6        1.0  0.19875089552611253  0.6211167904421363  0.9718856916634182  1.0000
  H   H7        1.0  0.6737790299476892  0.43202295000855645  0.9880149589150943  1.0000
  H   H8        1.0  0.3262209702301016  0.43202295000855645  0.011985040978736176  1.0000
  H   H9        1.0  0.8852049483081886  0.10694793480828249  0.9974072539138001  1.0000
  H   H10       1.0  0.11479505187096276  0.10694793480828249  0.0025927462132561566  1.0000
  H   H11       1.0  0.6931163949694226  0.9907522751969399  0.9934142048448251  1.0000
  H   H12       1.0  0.3068836052097288  0.9907522751969399  0.0065857952822313305  1.0000
  H   H13       1.0  0.8666634267529562  0.13367474310258  0.055106697753605646  1.0000
  H   H14       1.0  0.13333657342619526  0.13367474310258  0.9448933023734507  1.0000
  H   H15       1.0  0.5918284238646507  0.2109059543171047  0.05436106468097929  1.0000
  H   H16       1.0  0.4081715763145007  0.2109059543171047  0.9456389354460771  1.0000
  H   H17       1.0  0.841716285609388  0.9368642029292432  0.38877601450827753  1.0000
  H   H18       1.0  0.1582837145684029  0.9368642029292432  0.611223985385553  1.0000
  H   H19       1.0  0.10713163855568653  0.40827135854669044  0.3645130605855202  1.0000
  H   H20       1.0  0.8928683616221044  0.40827135854669044  0.6354869393083102  1.0000
  H   H21       1.0  0.18668420010460635  0.9320586521614754  0.511307932631019  1.0000
  H   H22       1.0  0.8133158000731846  0.9320586521614754  0.48869206726281145  1.0000
  H   H23       1.0  0.38759947770608055  0.2595936652736697  0.4989566979447516  1.0000
  H   H24       1.0  0.6124005224717103  0.2595936652736697  0.501043301949079  1.0000
  H   H25       1.0  0.19942172042885645  0.37417582174270914  0.5052949995358412  1.0000
  H   H26       1.0  0.8005782797489345  0.37417582174270914  0.49470500035798926  1.0000
  H   H27       1.0  0.32065069752099307  0.2270157240408303  0.4418796854802074  1.0000
  H   H28       1.0  0.6793493026567978  0.2270157240408303  0.5581203144136231  1.0000
  H   H29       1.0  0.048349569624968836  0.1464085596329906  0.44638912071105635  1.0000
  H   H30       1.0  0.9516504305528222  0.1464085596329906  0.5536108791827743  1.0000
  H   H31       1.0  0.27679375148331126  0.7411909068423946  0.46903752454321057  1.0000
  H   H32       1.0  0.7232062486958402  0.7411909068423946  0.5309624755838459  1.0000
  H   H33       1.0  0.2513722063416453  0.0198295226381419  0.38807046813151064  1.0000
  H   H34       1.0  0.7486277938375061  0.0198295226381419  0.6119295319955458  1.0000
  H   H35       1.0  0.33013528815821225  0.7730708489413284  0.41265078708323505  1.0000
  H   H36       1.0  0.6698647120209391  0.7730708489413284  0.5873492130438214  1.0000
  H   H37       1.0  0.5268844776057194  0.5964674769740724  0.42549020812357446  1.0000
  H   H38       1.0  0.47311552257207146  0.5964674769740724  0.5745097917702562  1.0000
  H   H39       1.0  0.5456152815412423  0.4782247411674906  0.3256510579429669  1.0000
  H   H40       1.0  0.4543847175020911  0.4782247411674906  0.6743489421715201  1.0000
  H   H41       1.0  0.7339138777161525  0.1236766770264261  0.33752076497798655  1.0000
  H   H42       1.0  0.26608612246299895  0.1236766770264261  0.6624792351490699  1.0000
  H   H43       1.0  0.7094405127389298  0.2230385895774771  0.43267190206435796  1.0000
  H   H44       1.0  0.2905594874402216  0.2230385895774771  0.5673280980626985  1.0000
  H   H45       1.0  0.47853396060284814  0.879615725853311  0.3029236011119153  1.0000
  H   H46       1.0  0.5214660384391249  0.879615725853311  0.6970763987693458  1.0000
  H   H47       1.0  0.5249374321624664  0.6673673948342992  0.2725452313782101  1.0000
  H   H48       1.0  0.47506256687950654  0.6673673948342992  0.727454768503051  1.0000
  H   H49       1.0  0.4424504793848197  0.6787137791691034  0.2212661919842797  1.0000
  H   H50       1.0  0.5575495207943317  0.6787137791691034  0.7787338081427767  1.0000
  H   H51       1.0  0.7488606887915187  0.34087486978295944  0.2305979161792682  1.0000
  H   H52       1.0  0.25113931138627227  0.34087486978295944  0.7694020837145623  1.0000
  H   H53       1.0  0.8088761066590621  0.2706644105606711  0.17432994011035474  1.0000
  H   H54       1.0  0.1911238935187288  0.2706644105606711  0.8256700597834757  1.0000
  H   H55       1.0  0.5110203802080747  0.6450224728335472  0.16507247271723002  1.0000
  H   H56       1.0  0.4889796199710767  0.6450224728335472  0.8349275274098265  1.0000
  H   H57       1.0  0.07135598375887138  0.47812107083933975  0.19066627287650906  1.0000
  H   H58       1.0  0.9286440164189194  0.47812107083933975  0.8093337270173216  1.0000
  H   H59       1.0  0.09161672301409407  0.2559010034971181  0.2220821937716933  1.0000
  H   H60       1.0  0.9083832771650574  0.2559010034971181  0.7779178063553631  1.0000
  H   H61       1.0  0.24545484974546247  0.1754985335886863  0.3239505322749695  1.0000
  H   H62       1.0  0.754545149297871  0.1754985335886863  0.6760494678395175  1.0000
  H   H63       1.0  0.24704106037284573  0.2546860908939742  0.26650060549874877  1.0000
  H   H64       1.0  0.7529589398049451  0.2546860908939742  0.7334993943950818  1.0000
  H   H65       1.0  0.9430907504358934  0.9086071722720235  0.27833766492679485  1.0000
  H   H66       1.0  0.05690924974189746  0.9086071722720235  0.7216623349670357  1.0000
  H   H67       1.0  0.9480818658083385  0.7909222935563285  0.33604675351056956  1.0000
  H   H68       1.0  0.05191813436945235  0.7909222935563285  0.6639532463832609  1.0000
  H   H69       1.0  0.8275687977433874  0.3351869545559924  0.10636942654192953  1.0000
  H   H70       1.0  0.17243120243440346  0.3351869545559924  0.893630573351901  1.0000
  H   H71       1.0  0.892325404474934  0.5837949961963174  0.08144048248482019  1.0000
  H   H72       1.0  0.1076745957028569  0.5837949961963174  0.9185595174090104  1.0000
  H   H73       1.0  0.27379687936088787  0.1374347392432142  0.06621693725354655  1.0000
  H   H74       1.0  0.7262031208182637  0.1374347392432142  0.93378306287351  1.0000
  H   H75       1.0  0.1261842055636893  0.8905990259838369  0.17110801847547255  1.0000
  H   H76       1.0  0.8738157934782836  0.8905990259838369  0.8288919814057887  1.0000
  H   H77       1.0  0.31464322528754324  0.24624390014709083  0.16165668988816176  1.0000
  H   H78       1.0  0.6853567748902477  0.24624390014709083  0.8383433100056688  1.0000
  H   H79       1.0  0.09089829135712023  0.7658018736606315  0.07102077025148225  1.0000
  H   H80       1.0  0.9091017088206708  0.7658018736606315  0.9289792296423482  1.0000
  C   C1        1.0  0.7732133078746547  0.11362653182823777  0.007648241636946006  1.0000
  C   C2        1.0  0.22678669230313633  0.11362653182823777  0.9923517582568846  1.0000
  C   C3        1.0  0.7901802721496802  0.0035163765749480123  0.04094228833033303  1.0000
  C   C4        1.0  0.2098197280281107  0.0035163765749480123  0.9590577115634974  1.0000
  C   C5        1.0  0.6366779516688418  0.009344782075246512  0.05609844615830762  1.0000
  C   C6        1.0  0.3633220485089491  0.009344782075246512  0.943901553735523  1.0000
  C   C7        1.0  0.47332708097839477  0.6614718792538482  0.05849672417346125  1.0000
  C   C8        1.0  0.5266729191993962  0.6614718792538482  0.9415032757203693  1.0000
  C   C9        1.0  0.5386102894285928  0.6996354189586955  0.08980651980694958  1.0000
  C   C10       1.0  0.46138971074919816  0.6996354189586955  0.910193480086881  1.0000
  C   C11       1.0  0.6362353350820081  0.9087844765883268  0.08885316206458069  1.0000
  C   C12       1.0  0.3637646639599648  0.9087844765883268  0.9111468378166805  1.0000
  C   C13       1.0  0.267641034749723  0.25101843284081554  0.49023232765277697  1.0000
  C   C14       1.0  0.7323589654280679  0.25101843284081554  0.5097676722410536  1.0000
  C   C15       1.0  0.25588615431376555  0.35793482624588485  0.4567837490084395  1.0000
  C   C16       1.0  0.7441138458640254  0.35793482624588485  0.5432162508853909  1.0000
  C   C17       1.0  0.0909583311650712  0.34765329085840585  0.44354960776906416  1.0000
  C   C18       1.0  0.9090416678769015  0.34765329085840585  0.556450392112197  1.0000
  C   C19       1.0  0.06657728301421903  0.4419087600103256  0.4106816889412098  1.0000
  C   C20       1.0  0.9334227171649324  0.4419087600103256  0.5893183111858465  1.0000
  C   C21       1.0  0.9695593373345635  0.6523279198291122  0.4100333326884876  1.0000
  C   C22       1.0  0.030440662843227346  0.6523279198291122  0.589966667205343  1.0000
  C   C23       1.0  0.9264617220761063  0.6962360536709297  0.44160283434497455  1.0000
  C   C24       1.0  0.0735382781030452  0.6962360536709297  0.5583971657820819  1.0000
  C   C25       1.0  0.5678710573770172  0.4968056948411634  0.40513255064240833  1.0000
  C   C26       1.0  0.4321289428007737  0.4968056948411634  0.5948674492514222  1.0000
  C   C27       1.0  0.5197192611590531  0.5683025719248156  0.3746446300646565  1.0000
  C   C28       1.0  0.48028073902009843  0.5683025719248156  0.6253553700624  1.0000
  C   C29       1.0  0.4073456302593178  0.7850263294080174  0.36781815500721626  1.0000
  C   C30       1.0  0.5926543699184731  0.7850263294080174  0.6321818448866143  1.0000
  C   C31       1.0  0.5804248250636508  0.43435622688517334  0.34978121866366124  1.0000
  C   C32       1.0  0.41957517511550063  0.43435622688517334  0.6502187814633952  1.0000
  C   C33       1.0  0.6846756674124906  0.23423501846362182  0.3563175384997912  1.0000
  C   C34       1.0  0.31532433276666083  0.23423501846362182  0.6436824616272652  1.0000
  C   C35       1.0  0.6705323602872876  0.29125819839702916  0.40950969387054126  1.0000
  C   C36       1.0  0.3294676398905034  0.29125819839702916  0.5904903060232893  1.0000
  C   C37       1.0  0.5251099175970632  0.8130707093885217  0.21200000022341894  1.0000
  C   C38       1.0  0.4748900825807277  0.8130707093885217  0.7879999996704116  1.0000
  C   C39       1.0  0.5920182026856025  0.013697153390560756  0.23043294347902427  1.0000
  C   C40       1.0  0.40798179749354896  0.013697153390560756  0.769567056648032  1.0000
  C   C41       1.0  0.5500991835934438  0.06501249420788305  0.26342972973109935  1.0000
  C   C42       1.0  0.4499008165857076  0.06501249420788305  0.736570270395957  1.0000
  C   C43       1.0  0.6957542223093436  0.1816004651460784  0.2169757542635259  1.0000
  C   C44       1.0  0.30424577786844736  0.1816004651460784  0.7830242456303047  1.0000
  C   C45       1.0  0.7285586238244284  0.14490245959696443  0.18593284319268052  1.0000
  C   C46       1.0  0.27144137635336246  0.14490245959696443  0.81406715670115  1.0000
  C   C47       1.0  0.5619676168899667  0.7916299939539096  0.18095628088823312  1.0000
  C   C48       1.0  0.4380323832878243  0.7916299939539096  0.8190437190055972  1.0000
  C   C49       1.0  0.17768365378548953  0.3332921527625916  0.31279992466591255  1.0000
  C   C50       1.0  0.8223163463923014  0.3332921527625916  0.6872000752279179  1.0000
  C   C51       1.0  0.1785944863731739  0.37910403024396777  0.28082664447470435  1.0000
  C   C52       1.0  0.8214055138046169  0.37910403024396777  0.7191733554191262  1.0000
  C   C53       1.0  0.09306915828657676  0.5877250585780041  0.26793906329584016  1.0000
  C   C54       1.0  0.9069308418925747  0.5877250585780041  0.7320609368312163  1.0000
  C   C55       1.0  0.08880958474894736  0.6512705253713563  0.23372309574898362  1.0000
  C   C56       1.0  0.9111904154302041  0.6512705253713563  0.7662769043780728  1.0000
  C   C57       1.0  0.009162644380827359  0.742737431105705  0.2877251378161933  1.0000
  C   C58       1.0  0.9908373557983241  0.742737431105705  0.7122748623108631  1.0000
  C   C59       1.0  0.011376955314318808  0.6808391940276513  0.31929403355836333  1.0000
  C   C60       1.0  0.9886230448648327  0.6808391940276513  0.6807059665686931  1.0000
  C   C61       1.0  0.23848853227432207  0.07180361880382267  0.08885639772639443  1.0000
  C   C62       1.0  0.7615114667690114  0.07180361880382267  0.9111436023880927  1.0000
  C   C63       1.0  0.09304357342435626  0.7988228759928352  0.1217120284612538  1.0000
  C   C64       1.0  0.9069564267534347  0.7988228759928352  0.8782879714325768  1.0000
  C   C65       1.0  0.9841014519441198  0.5796259041998987  0.12708619004485283  1.0000
  C   C66       1.0  0.01589854823367118  0.5796259041998987  0.8729138098489778  1.0000
  C   C67       1.0  0.157782111290016  0.9350772148144904  0.14745871237924674  1.0000
  C   C68       1.0  0.8422178888891355  0.9350772148144904  0.8525412877478097  1.0000
  C   C69       1.0  0.2615031728870765  0.13412228397833637  0.14225600507273525  1.0000
  C   C70       1.0  0.7384968272907145  0.13412228397833637  0.8577439948210953  1.0000
  C   C71       1.0  0.1356310169850735  0.8678411579198348  0.09185551074541243  1.0000
  C   C72       1.0  0.8643689831940778  0.8678411579198348  0.9081444893816439  1.0000
  N   N1        1.0  0.7277016108473904  0.16199911992829957  0.38552268301562576  1.0000
  N   N2        1.0  0.27229838933040057  0.16199911992829957  0.6144773168782048  1.0000
  N   N3        1.0  0.32808033603342684  0.8692089396953255  0.3915982371120596  1.0000
  N   N4        1.0  0.6719196630099066  0.8692089396953255  0.6084017630024273  1.0000
  N   N5        1.0  0.5126707214426505  0.856142677325921  0.2804163890168347  1.0000
  N   N6        1.0  0.48732927873514065  0.856142677325921  0.719583610876996  1.0000
  N   N7        1.0  0.6612914951404509  0.9547499747899559  0.16826457809056977  1.0000
  N   N8        1.0  0.33870850503734  0.9547499747899559  0.8317354218032607  1.0000
  N   N9        1.0  0.09419870165614695  0.47991011489011803  0.33148470646509287  1.0000
  N   N10       1.0  0.9058012985230045  0.47991011489011803  0.6685152936619635  1.0000
  N   N11       1.0  0.09713424069807267  0.4459428448852813  0.21420645644542258  1.0000
  N   N12       1.0  0.9028657594797184  0.4459428448852813  0.785793543448408  1.0000
  N   N13       1.0  0.3004736790702934  0.20273093688336682  0.11359366820981714  1.0000
  N   N14       1.0  0.6995263211074976  0.20273093688336682  0.8864063316840134  1.0000
  N   N15       1.0  0.9015617714604299  0.4863581086819407  0.10245623586288657  1.0000
  N   N16       1.0  0.09843822871736098  0.4863581086819407  0.8975437640309439  1.0000
  O   O1        1.0  0.3780136073539433  0.49672971177395425  0.04873750192027081  1.0000
  O   O2        1.0  0.6219863928238477  0.49672971177395425  0.9512624979735599  1.0000
  O   O3        1.0  0.5295290496561046  0.8422763587648338  0.03851150987695592  1.0000
  O   O4        1.0  0.47047094938586825  0.8422763587648338  0.9614884900043051  1.0000
  O   O5        1.0  0.5081030617491984  0.5584859181022098  0.11514203536907955  1.0000
  O   O6        1.0  0.491896938429953  0.5584859181022098  0.8848579647579768  1.0000
  O   O7        1.0  0.7207179091745572  0.022043389963447593  0.11147971581489215  1.0000
  O   O8        1.0  0.2792820898687761  0.022043389963447593  0.8885202842995948  1.0000
  O   O9        1.0  0.8596788401321781  0.7513509944491632  0.041800437817282876  1.0000
  O   O10       1.0  0.1403211600469734  0.7513509944491632  0.9581995623097733  1.0000
  O   O11       1.0  0.7163327255936818  0.37688695998674904  0.009153217856384043  1.0000
  O   O12       1.0  0.28366727458546975  0.37688695998674904  0.9908467822706724  1.0000
  O   O13       1.0  0.8377982849327407  0.8628243572662129  0.4515209961761602  1.0000
  O   O14       1.0  0.16220171411059264  0.8628243572662129  0.5484790039383268  1.0000
  O   O15       1.0  0.9970501490921675  0.5187504274190365  0.4615580571224607  1.0000
  O   O16       1.0  0.0029498510856233538  0.5187504274190365  0.5384419427713698  1.0000
  O   O17       1.0  0.9200222366700495  0.7866140274791151  0.3846127170463854  1.0000
  O   O18       1.0  0.07997776350774147  0.7866140274791151  0.6153872828474453  1.0000
  O   O19       1.0  0.1337561892277768  0.32418023839620996  0.38763880141693735  1.0000
  O   O20       1.0  0.866243809814196  0.32418023839620996  0.6123611984643238  1.0000
  O   O21       1.0  0.32234054089161207  0.6113878788538433  0.4545050518459816  1.0000
  O   O22       1.0  0.6776594592861789  0.6113878788538433  0.5454949480478489  1.0000
  O   O23       1.0  0.2112123509575184  0.9867974687890424  0.48972792062600656  1.0000
  O   O24       1.0  0.7887876492202726  0.9867974687890424  0.510272079267824  1.0000
  O   O25       1.0  0.39166096985867627  0.8809820242070191  0.34086503758677983  1.0000
  O   O26       1.0  0.6083390303204752  0.8809820242070191  0.6591349625402765  1.0000
  O   O27       1.0  0.5496312307514362  0.29679573321631153  0.2733693689090251  1.0000
  O   O28       1.0  0.45036876942635473  0.29679573321631153  0.7266306309848055  1.0000
  O   O29       1.0  0.07705296770415468  0.8849700266039645  0.22467128432593392  1.0000
  O   O30       1.0  0.9229470324736364  0.8849700266039645  0.7753287155678967  1.0000
  O   O31       1.0  0.9752230055335355  0.48533523034057513  0.15396172004520378  1.0000
  O   O32       1.0  0.024776994644255524  0.48533523034057513  0.8460382798486267  1.0000
