data_image0
_chemical_formula_structural       H54B2C86F30S2
_chemical_formula_sum              "H54 B2 C86 F30 S2"
_cell_length_a       9.80499938441869
_cell_length_b       11.0558092793328
_cell_length_c       17.194927162465472
_cell_angle_alpha    83.49115251922427
_cell_angle_beta     74.98279189770571
_cell_angle_gamma    85.14388991249749

_space_group_name_H-M_alt    "P 1"
_space_group_IT_number       1

loop_
  _space_group_symop_operation_xyz
  'x, y, z'

loop_
  _atom_site_type_symbol
  _atom_site_label
  _atom_site_symmetry_multiplicity
  _atom_site_fract_x
  _atom_site_fract_y
  _atom_site_fract_z
  _atom_site_occupancy
  H   H1        1.0  0.11257064079845605  0.5188464553985687  0.14632457925432538  1.0000
  H   H2        1.0  0.8874293595737858  0.4811535442345119  0.8536754210987497  1.0000
  H   H3        1.0  0.709643568896219  0.46160859493816564  0.27014615929988917  1.0000
  H   H4        1.0  0.29035643045641923  0.538391404700814  0.7298538410513741  1.0000
  H   H5        1.0  0.5196615711940553  0.4313475142557912  0.39641000214457534  1.0000
  H   H6        1.0  0.48033842936518395  0.5686524863770708  0.6035899976076662  1.0000
  H   H7        1.0  0.5799947265253735  0.3876623894603115  0.5292565182869852  1.0000
  H   H8        1.0  0.4200052727451656  0.6123376110858159  0.4707434820682949  1.0000
  H   H9        1.0  0.8325856419702627  0.37693141674784664  0.535129839359806  1.0000
  H   H10       1.0  0.16741435756937312  0.6230685838909145  0.46487016039062384  1.0000
  H   H11       1.0  0.020463152813207167  0.4139712025003014  0.4095852353990705  1.0000
  H   H12       1.0  0.9795368468085278  0.5860287972313122  0.5904147643473426  1.0000
  H   H13       1.0  0.18505631908632475  0.29422275099044776  0.34458648272938375  1.0000
  H   H14       1.0  0.814943681285917  0.7057772486426329  0.6554135176236913  1.0000
  H   H15       1.0  0.2825066123314096  0.203766409307617  0.26604248969753663  1.0000
  H   H16       1.0  0.7174933870212287  0.7962335903313628  0.7339575106537267  1.0000
  H   H17       1.0  0.26743441198400586  0.49022491810269897  0.3535872135680614  1.0000
  H   H18       1.0  0.7325655883882357  0.5097750815303816  0.6464127867850137  1.0000
  H   H19       1.0  0.4290403293285253  0.6581977859435832  0.2962313035698626  1.0000
  H   H20       1.0  0.5709596713128131  0.3418022137821311  0.7037686961783624  1.0000
  H   H21       1.0  0.5854294039931546  0.6549587190307135  0.15765235114766407  1.0000
  H   H22       1.0  0.4145705966481839  0.34504128069500095  0.8423476486005609  1.0000
  H   H23       1.0  0.5772645552755505  0.4866044782281573  0.0741728343111896  1.0000
  H   H24       1.0  0.4227354453657879  0.5133955214975572  0.9258271654370355  1.0000
  H   H25       1.0  0.4139300960953755  0.3214124088628409  0.13062247832357826  1.0000
  H   H26       1.0  0.5860699032572626  0.6785875907761388  0.8693775220276851  1.0000
  H   H27       1.0  0.05698525782523834  0.10671924832474698  0.268632030899289  1.0000
  H   H28       1.0  0.9430147424649044  0.8932807522154812  0.7313679694578027  1.0000
  H   H29       1.0  0.9521343530866497  0.19948172577735393  0.3429192960672329  1.0000
  H   H30       1.0  0.04786564755468868  0.8005182739483604  0.6570807036809919  1.0000
  H   H31       1.0  0.7417438430960198  0.08523548734257576  0.35659998260494113  1.0000
  H   H32       1.0  0.258256156525715  0.9147645123890379  0.6434000171414721  1.0000
  H   H33       1.0  0.53670053032991  0.05097591487839616  0.30404074433122896  1.0000
  H   H34       1.0  0.46329946920972576  0.9490240857603652  0.6959592554192008  1.0000
  H   H35       1.0  0.5347827608236863  0.12700508044359324  0.16222764513584684  1.0000
  H   H36       1.0  0.465217239735553  0.8729949201892688  0.8377723546163947  1.0000
  H   H37       1.0  0.7360897892321474  0.24126853904726053  0.07535312423374584  1.0000
  H   H38       1.0  0.2639102110579952  0.7587314614929678  0.9246468761233458  1.0000
  H   H39       1.0  0.9422466307263072  0.26996304874308824  0.12580004080646273  1.0000
  H   H40       1.0  0.05775336889542796  0.7300369509885254  0.8741999589399504  1.0000
  H   H41       1.0  0.9553322173522871  0.13607914494790949  0.4891812547138985  1.0000
  H   H42       1.0  0.0446677819182519  0.863920855598218  0.5108187456413814  1.0000
  H   H43       1.0  0.012443392609976855  0.06386716902580286  0.5725922400455018  1.0000
  H   H44       1.0  0.9875566080313615  0.9361328306999116  0.4274077597027231  1.0000
  H   H45       1.0  0.8068068496129255  0.9229494345916729  0.598976583390248  1.0000
  H   H46       1.0  0.19319315094631379  0.0770505660411891  0.4010234163619936  1.0000
  H   H47       1.0  0.761288373668265  0.07657441045040891  0.6166614139756581  1.0000
  H   H48       1.0  0.23871162595346992  0.9234255892812044  0.3833385857707551  1.0000
  H   H49       1.0  0.6038081913100072  0.9939612107349289  0.5412183265390059  1.0000
  H   H50       1.0  0.3961918089801354  0.006038789805299503  0.4587816738180858  1.0000
  H   H51       1.0  0.7536186197964487  0.9699314201035395  0.46017883730007564  1.0000
  H   H52       1.0  0.24638138057579279  0.030068579529541062  0.5398211630529994  1.0000
  H   H53       1.0  0.6959297626117227  0.1206536246207748  0.4861385852256471  1.0000
  H   H54       1.0  0.3040702380296158  0.8793463751049397  0.5138614145225777  1.0000
  B   B1        1.0  0.9861574414113071  0.6899334394473383  0.19414865218184182  1.0000
  B   B2        1.0  0.01384255821042783  0.31006656028427515  0.8058513475645713  1.0000
  C   C1        1.0  0.03075447837310457  0.5448791403847143  0.19920734174037552  1.0000
  C   C2        1.0  0.9692455209795338  0.4551208592542654  0.8007926586108878  1.0000
  C   C3        1.0  0.9903978591474535  0.4505489564113725  0.25519445402373775  1.0000
  C   C4        1.0  0.009602140474281365  0.549451043320241  0.7448055457226755  1.0000
  C   C5        1.0  0.8781030277257724  0.43928998503938893  0.33124814310614237  1.0000
  C   C6        1.0  0.12189697264646929  0.5607100145936916  0.6687518572469328  1.0000
  C   C7        1.0  0.7359226841546656  0.4449301014280207  0.3283666114590331  1.0000
  C   C8        1.0  0.2640773162175762  0.55506989820506  0.6716333888940419  1.0000
  C   C9        1.0  0.6294828003261224  0.42742642160019756  0.3995433771178257  1.0000
  C   C10       1.0  0.37051719929561266  0.5725735781314161  0.6004566226285873  1.0000
  C   C11       1.0  0.6634531519270892  0.40253641388414785  0.47401148367923196  1.0000
  C   C12       1.0  0.33654684734345003  0.5974635866619796  0.525988516676048  1.0000
  C   C13       1.0  0.8046241844731281  0.39625797106303273  0.4774592691998939  1.0000
  C   C14       1.0  0.19537581514860677  0.6037420286685807  0.5225407305465193  1.0000
  C   C15       1.0  0.9111624823345994  0.4148848563561025  0.4064061874657948  1.0000
  C   C16       1.0  0.0888375170180387  0.5851151432828773  0.5935938128854686  1.0000
  C   C17       1.0  0.23293436420589528  0.29443905420311567  0.27948692309998635  1.0000
  C   C18       1.0  0.7670656354158396  0.705560945528498  0.7205130766464269  1.0000
  C   C19       1.0  0.3317368903628983  0.39429181067555286  0.2461956051686714  1.0000
  C   C20       1.0  0.668263108907641  0.6057081898705746  0.7538043951866086  1.0000
  C   C21       1.0  0.33558629637232607  0.4897697873682541  0.29238838695084807  1.0000
  C   C22       1.0  0.6644137029803123  0.5102302122707256  0.7076116134004152  1.0000
  C   C23       1.0  0.4265037876429957  0.5836386191299511  0.260351975886984  1.0000
  C   C24       1.0  0.5734962129983429  0.41636138059576333  0.7396480238612408  1.0000
  C   C25       1.0  0.5137335797310881  0.5822786094630212  0.18203810832847583  1.0000
  C   C26       1.0  0.4862664209102503  0.41772139026269317  0.8179618914197491  1.0000
  C   C27       1.0  0.5093093356745043  0.4878923410458527  0.13529900694213154  1.0000
  C   C28       1.0  0.49069066386513155  0.5121076595929085  0.8647009928082983  1.0000
  C   C29       1.0  0.4181140943367828  0.39460963404716415  0.16722909015495802  1.0000
  C   C30       1.0  0.5818859052849521  0.6053903656844493  0.8327709095914552  1.0000
  C   C31       1.0  0.9834137747484998  0.1877130416752882  0.2779547514590699  1.0000
  C   C32       1.0  0.01658622562374192  0.8122869579577924  0.7220452488940052  1.0000
  C   C33       1.0  0.8571803984327091  0.1778761969497442  0.24475373508532985  1.0000
  C   C34       1.0  0.1428196022086292  0.8221238027759701  0.7552462646628951  1.0000
  C   C35       1.0  0.7411184634926785  0.11799268638434676  0.2945904623074182  1.0000
  C   C36       1.0  0.2588815361290567  0.8820073133472667  0.7054095374389949  1.0000
  C   C37       1.0  0.625518522027907  0.09951113619642082  0.2651176852783248  1.0000
  C   C38       1.0  0.37448147826223577  0.9004888643438076  0.7348823150787668  1.0000
  C   C39       1.0  0.623870302732304  0.14265006317640336  0.18584408485445836  1.0000
  C   C40       1.0  0.37612969790903433  0.857349936549311  0.8141559148937666  1.0000
  C   C41       1.0  0.7373447634913752  0.20532904144045203  0.13670236139801412  1.0000
  C   C42       1.0  0.2626552368808663  0.7946709581926287  0.863297638955061  1.0000
  C   C43       1.0  0.8539067949559955  0.22209493348068834  0.1657492993627353  1.0000
  C   C44       1.0  0.1460932043145437  0.7779050670654392  0.8342507009925447  1.0000
  C   C45       1.0  0.9173798242361457  0.7281145712870897  0.11625946272554097  1.0000
  C   C46       1.0  0.08262017640519245  0.27188542843862473  0.883740537022684  1.0000
  C   C47       1.0  0.8982120723443031  0.8515160952958699  0.09032420606236403  1.0000
  C   C48       1.0  0.1017879280279387  0.1484839043372107  0.9096757942907111  1.0000
  C   C49       1.0  0.841983825829087  0.8938320490520232  0.025136005098799635  1.0000
  C   C50       1.0  0.15801617379264787  0.1061679506795903  0.9748639946476135  1.0000
  C   C51       1.0  0.7997685071333365  0.8099381027204822  0.9826749635418583  1.0000
  C   C52       1.0  0.20023149323890513  0.19006189691259845  0.01732503681121665  1.0000
  C   C53       1.0  0.8145446357467856  0.6861247525935938  0.006701842186671431  1.0000
  C   C54       1.0  0.18545536462545603  0.3138752470394869  0.9932981581664035  1.0000
  C   C55       1.0  0.8736159907595428  0.647945105716478  0.07175813053756022  1.0000
  C   C56       1.0  0.1263840088621923  0.3520548940151355  0.928241869208853  1.0000
  C   C57       1.0  0.876767376469128  0.7251879953845692  0.279610651082023  1.0000
  C   C58       1.0  0.12323262417221043  0.27481200434114517  0.7203893486662019  1.0000
  C   C59       1.0  0.9188863674948734  0.7020288771965559  0.35185787081092007  1.0000
  C   C60       1.0  0.08111363314646504  0.2979711225291586  0.6481421289373048  1.0000
  C   C61       1.0  0.8293454415975517  0.7135513639382509  0.4282039073000408  1.0000
  C   C62       1.0  0.17065455877468996  0.28644863569482965  0.5717960930530342  1.0000
  C   C63       1.0  0.6876070351340123  0.7504067289031906  0.43591949017098913  1.0000
  C   C64       1.0  0.31239296413652684  0.24959327164293688  0.5640805101842907  1.0000
  C   C65       1.0  0.6404588363423799  0.7771348369489498  0.36606390761943136  1.0000
  C   C66       1.0  0.35954116402986186  0.2228651626841308  0.6339360927336437  1.0000
  C   C67       1.0  0.7345907802368483  0.7649302818501695  0.29063207306210476  1.0000
  C   C68       1.0  0.265409220322391  0.2350697187826925  0.7093679266901367  1.0000
  C   C69       1.0  0.13767877661836347  0.7596368264402932  0.169851106671591  1.0000
  C   C70       1.0  0.8623212230033714  0.2403631732913205  0.8301488930748222  1.0000
  C   C71       1.0  0.1710743779113445  0.8530608214693097  0.20878395673784633  1.0000
  C   C72       1.0  0.8289256224608972  0.14693917816377078  0.7912160436152288  1.0000
  C   C73       1.0  0.29758321907496965  0.9119416386888525  0.1836640677707025  1.0000
  C   C74       1.0  0.7024167814842698  0.08805836194400955  0.816335931981539  1.0000
  C   C75       1.0  0.3987406422462813  0.8807418810659472  0.11480783613255405  1.0000
  C   C76       1.0  0.6012593573754537  0.11925811866566631  0.8851921636138591  1.0000
  C   C77       1.0  0.37030354511933733  0.7896302013187562  0.07283842845893954  1.0000
  C   C78       1.0  0.6296964545023976  0.2103697984128573  0.9271615712874737  1.0000
  C   C79       1.0  0.24296446208368885  0.7326387076175955  0.10072985935827655  1.0000
  C   C80       1.0  0.7570355382064538  0.26736129292263294  0.8992701409988151  1.0000
  C   C81       1.0  0.9577434823380135  0.04830192042873687  0.5265523990973578  1.0000
  C   C82       1.0  0.04225651830332502  0.9516980792969776  0.473447600650867  1.0000
  C   C83       1.0  0.8056035482316242  0.016264064748500624  0.5685551528885594  1.0000
  C   C84       1.0  0.1943964513080117  0.9837359358902605  0.4314448468618704  1.0000
  C   C85       1.0  0.709333967713301  0.025581663336218263  0.5109101374092898  1.0000
  C   C86       1.0  0.29066603292803744  0.9744183363894962  0.4890898623389351  1.0000
  F   F1        1.0  0.9302190254090553  0.9377821252321059  0.1320367820637151  1.0000
  F   F2        1.0  0.06978097394358279  0.062217874406873985  0.8679632182875483  1.0000
  F   F3        1.0  0.8242186903513854  0.014426739912938658  0.0038414468675528686  1.0000
  F   F4        1.0  0.17578131028995286  0.9855732598127757  0.996158552880672  1.0000
  F   F5        1.0  0.7437828418379737  0.8487554598957083  0.9193749612985367  1.0000
  F   F6        1.0  0.2562171587212658  0.15124454073715385  0.08062503845370474  1.0000
  F   F7        1.0  0.7695494639904704  0.6035164796146578  0.9677035033242132  1.0000
  F   F8        1.0  0.23045053563126433  0.39648352011695587  0.03229649642219999  1.0000
  F   F9        1.0  0.8826855565327592  0.5248590575167712  0.09091138214356469  1.0000
  F   F10       1.0  0.11731444402648004  0.47514094311609084  0.9090886176086769  1.0000
  F   F11       1.0  0.055306153091350396  0.6626202910785056  0.34990956825292374  1.0000
  F   F12       1.0  0.944693847549988  0.3373797086472088  0.6500904314953012  1.0000
  F   F13       1.0  0.8768635643585321  0.6872500550554528  0.4959770649127594  1.0000
  F   F14       1.0  0.12313643593161051  0.3127499454847757  0.5040229354443322  1.0000
  F   F15       1.0  0.5992130971545512  0.7597585418775563  0.5098987205614341  1.0000
  F   F16       1.0  0.40078690348678714  0.24024145784815795  0.49010127918679075  1.0000
  F   F17       1.0  0.5028530428525522  0.8132316271369995  0.371275401206232  1.0000
  F   F18       1.0  0.49714695778878615  0.18676837258871504  0.6287245985419929  1.0000
  F   F19       1.0  0.6749830466268736  0.7929482208219796  0.2271072653403628  1.0000
  F   F20       1.0  0.3250169529948614  0.20705177890963403  0.7728927344060503  1.0000
  F   F21       1.0  0.07639749814939936  0.8977207490546208  0.273797445175661  1.0000
  F   F22       1.0  0.9236025024919391  0.10227925067109349  0.7262025545725639  1.0000
  F   F23       1.0  0.32087294109166264  0.003382569700700332  0.22462066425534577  1.0000
  F   F24       1.0  0.6791270595496758  0.9966174300250139  0.7753793354928791  1.0000
  F   F25       1.0  0.5201836957850311  0.9388317419718313  0.08862936266865623  1.0000
  F   F26       1.0  0.4798163035676071  0.06116825766714834  0.9113706376826072  1.0000
  F   F27       1.0  0.46623234990863255  0.7576804129372309  0.00505571953034435  1.0000
  F   F28       1.0  0.5337676506506068  0.2423195876956313  0.9949442802218972  1.0000
  F   F29       1.0  0.2234596014737952  0.6476325544493824  0.05340775229575216  1.0000
  F   F30       1.0  0.7765403981479398  0.35236744528223113  0.9465922474506611  1.0000
  S   S1        1.0  0.09064508246126983  0.312100613572296  0.22635590483157328  1.0000
  S   S2        1.0  0.9093549181800686  0.6878993861534184  0.7736440949166516  1.0000
