data_image0
_chemical_formula_structural       H84B20C40N8O2
_chemical_formula_sum              "H84 B20 C40 N8 O2"
_cell_length_a       10.016103003972846
_cell_length_b       12.359032058363203
_cell_length_c       13.170096688688744
_cell_angle_alpha    103.21888077090902
_cell_angle_beta     112.66225067094308
_cell_angle_gamma    106.69676049676055

_space_group_name_H-M_alt    "P 1"
_space_group_IT_number       1

loop_
  _space_group_symop_operation_xyz
  'x, y, z'

loop_
  _atom_site_type_symbol
  _atom_site_label
  _atom_site_symmetry_multiplicity
  _atom_site_fract_x
  _atom_site_fract_y
  _atom_site_fract_z
  _atom_site_occupancy
  H   H1        1.0  0.48085265949558714  0.06252045518703617  0.6712183313718644  1.0000
  H   H2        1.0  0.6679379324496865  0.912941822131424  0.6930907096067969  1.0000
  H   H3        1.0  0.308026158445571  0.7858720906131559  0.5383175773665158  1.0000
  H   H4        1.0  0.7376356460806132  0.1105625650388086  0.9146811183155487  1.0000
  H   H5        1.0  0.43558187286087396  0.12792439137764874  0.8846156522586595  1.0000
  H   H6        1.0  0.16431967651954438  0.921705816164844  0.6501304013859408  1.0000
  H   H7        1.0  0.27270045794256026  0.759822928732145  0.794468856656362  1.0000
  H   H8        1.0  0.4813673606782236  0.6710371461873995  0.6888639372323322  1.0000
  H   H9        1.0  0.7494118603515355  0.8744454176874004  0.922361627770047  1.0000
  H   H10       1.0  0.44871579814277057  0.8956049033938173  0.9516685498544334  1.0000
  H   H11       1.0  0.3101090975167523  0.9401845732530018  0.8194205522705589  1.0000
  H   H12       1.0  0.5053040122397711  0.7831740852584647  0.8425182449040868  1.0000
  H   H13       1.0  0.11622426798563185  0.608677668148377  0.517907979565137  1.0000
  H   H14       1.0  0.07296138668148987  0.6738981692100275  0.7745132867070289  1.0000
  H   H15       1.0  0.7929716580679285  0.11215303036380851  0.0991144956274538  1.0000
  H   H16       1.0  0.4298554002776499  0.9766793874625145  0.09246790952549269  1.0000
  H   H17       1.0  0.8011085116976759  0.3922201549618443  0.512644690627848  1.0000
  H   H18       1.0  0.8973739292947294  0.4353635477461117  0.42871572157901655  1.0000
  H   H19       1.0  0.7592835768902759  0.4928069126511932  0.4427175073823202  1.0000
  H   H20       1.0  0.6773996504387317  0.5749848010345797  0.5755536088539664  1.0000
  H   H21       1.0  0.4480290448510916  0.4625416035947682  0.5956480291505872  1.0000
  H   H22       1.0  0.4854770859425868  0.3695084656920193  0.7478950215966745  1.0000
  H   H23       1.0  0.7579244493005401  0.39442200334121297  0.8835523084363683  1.0000
  H   H24       1.0  0.9854988359352411  0.49702990067915676  0.8549433085512566  1.0000
  H   H25       1.0  0.784064661045712  0.20220284806795508  0.3665643331346702  1.0000
  H   H26       1.0  0.8958322230287689  0.2342672002361099  0.29041492889729464  1.0000
  H   H27       1.0  0.8736432179564445  0.10555192270015584  0.3307459750716843  1.0000
  H   H28       1.0  0.46872530045833116  0.2201023141298353  0.25594915922226086  1.0000
  H   H29       1.0  0.4529231317130087  0.28514829646125506  0.4419341305435266  1.0000
  H   H30       1.0  0.48099959276336274  0.1628904408948469  0.5692052311767244  1.0000
  H   H31       1.0  0.5162433902280568  0.972732840218334  0.5073136765367862  1.0000
  H   H32       1.0  0.5321634407795608  0.9070432954058241  0.3188626086265121  1.0000
  H   H33       1.0  0.3674341297275687  0.5705960824830145  0.48634371887023153  1.0000
  H   H34       1.0  0.9374197813101152  0.24369264834066795  0.11161006603341456  1.0000
  H   H35       1.0  0.007798372376332252  0.4400636661365681  0.334797532952318  1.0000
  H   H36       1.0  0.1999784194907976  0.2938848267746026  0.3532755718303585  1.0000
  H   H37       1.0  0.241199106670752  0.2327302431010865  0.1371753467205419  1.0000
  H   H38       1.0  0.21799093833643027  0.4644106162511388  0.07199505992087855  1.0000
  H   H39       1.0  0.9190350001424531  0.47943036654899374  0.10583648652488586  1.0000
  H   H40       1.0  0.1868359006035846  0.6830808353787816  0.3380706992888846  1.0000
  H   H41       1.0  0.392894029290291  0.6004912607954824  0.22733352884703745  1.0000
  H   H42       1.0  0.5121918222548613  0.43852199669870656  0.3703156470742036  1.0000
  H   H43       1.0  0.16232840039086832  0.572113784957908  0.18288695401976043  1.0000
  H   H44       1.0  0.36203068901262636  0.42042639201077936  0.20208673930185755  1.0000
  H   H45       1.0  0.8767840249704348  0.24636575721880186  0.9258157912946902  1.0000
  H   H46       1.0  0.2448595693752347  0.3769709973569257  0.929339125573067  1.0000
  H   H47       1.0  0.5531197417034739  0.7530718837675371  0.5031295728831091  1.0000
  H   H48       1.0  0.5946158241896511  0.6649375175004216  0.2511566902442193  1.0000
  H   H49       1.0  0.7555770544007228  0.1486288763673163  0.7367962303952853  1.0000
  H   H50       1.0  0.8793510043717244  0.12007907189861904  0.675930678869309  1.0000
  H   H51       1.0  0.8294559977790505  0.24518760718209615  0.6713871193455673  1.0000
  H   H52       1.0  0.19136820590475495  0.12887624065094053  0.7623872555364429  1.0000
  H   H53       1.0  0.20701746878116875  0.06500891692313956  0.5759987201332891  1.0000
  H   H54       1.0  0.1841468751909795  0.19069105926516416  0.45186769883413314  1.0000
  H   H55       1.0  0.15441400636337915  0.3826590346918755  0.5173596750489156  1.0000
  H   H56       1.0  0.14020338922808162  0.4477165746749572  0.7064756202504692  1.0000
  H   H57       1.0  0.781024893858531  0.913862338914319  0.5933930544944569  1.0000
  H   H58       1.0  0.85293588133268  0.9634789141034644  0.49903040978362617  1.0000
  H   H59       1.0  0.9228904372323243  0.8697171909735733  0.5669211232591077  1.0000
  H   H60       1.0  0.9978223862298614  0.7686939858213833  0.4398241926922104  1.0000
  H   H61       1.0  0.22136967973704516  0.8894145411695898  0.41808671523428964  1.0000
  H   H62       1.0  0.1735807066673138  0.9855929329969563  0.26838661028132377  1.0000
  H   H63       1.0  0.8959160777144914  0.9530783823919201  0.13491927344561097  1.0000
  H   H64       1.0  0.6732355154198263  0.8392416943720301  0.16261662858491122  1.0000
  H   H65       1.0  0.6627018355128442  0.3142385856465356  0.11634056192859485  1.0000
  H   H66       1.0  0.4645090927593325  0.2914898559566993  0.08427391604607763  1.0000
  H   H67       1.0  0.6292711245856386  0.42504646623367076  0.20467029340870957  1.0000
  H   H68       1.0  0.7003538421034853  0.49409191665303387  0.05977518679841181  1.0000
  H   H69       1.0  0.5332695765581372  0.36226433412073905  0.9392325954296818  1.0000
  H   H70       1.0  0.46543057973417096  0.526848817584632  0.8785697688178945  1.0000
  H   H71       1.0  0.6243307274975168  0.6407908696183139  0.017382855840251978  1.0000
  H   H72       1.0  0.41438399485639754  0.7146960337523547  0.9436670423934027  1.0000
  H   H73       1.0  0.416768466592981  0.6824987717042451  0.06914514354732382  1.0000
  H   H74       1.0  0.266702401357518  0.5789917655709859  0.9236940580150163  1.0000
  H   H75       1.0  0.11355438695907348  0.7439679717752726  0.14761070730449244  1.0000
  H   H76       1.0  0.2742397038556672  0.8061978668055464  0.12158335840326283  1.0000
  H   H77       1.0  0.12333957012513454  0.6562435863058678  0.02597276453218363  1.0000
  H   H78       1.0  0.922552586143907  0.7416350167316854  0.9531572984788371  1.0000
  H   H79       1.0  0.06656445010211237  0.8908510898147742  0.057489588549678006  1.0000
  H   H80       1.0  0.04216980565970734  0.8589697403864898  0.7680090318680474  1.0000
  H   H81       1.0  0.8884205341686972  0.8220410473310563  0.8077219291290314  1.0000
  H   H82       1.0  0.998696364338731  0.04276414649968252  0.8463782728380181  1.0000
  H   H83       1.0  0.1953577684385959  0.06133878172403691  0.9390143714246758  1.0000
  H   H84       1.0  0.046421303982098386  0.0268474895854247  0.983553125435831  1.0000
  B   B1        1.0  0.4650292986290164  0.9936476693036146  0.7204997750256957  1.0000
  B   B2        1.0  0.5788493323888675  0.9020922475737773  0.7340457466096699  1.0000
  B   B3        1.0  0.3709480434713964  0.8334571114667702  0.6446904972284221  1.0000
  B   B4        1.0  0.6160672506430596  0.019255412752922838  0.8596385982246403  1.0000
  B   B5        1.0  0.4429935209808642  0.03264430045775895  0.8489969227515486  1.0000
  B   B6        1.0  0.280380018225697  0.9083295011127889  0.7068889359052071  1.0000
  B   B7        1.0  0.26339553663646487  0.7510962888929312  0.6987393562501121  1.0000
  B   B8        1.0  0.4643489798056951  0.760087874448954  0.7283699239880884  1.0000
  B   B9        1.0  0.627860635051246  0.8840492614780542  0.8713894378374211  1.0000
  B   B10       1.0  0.5581556687879852  0.9747521541534419  0.9569736390722334  1.0000
  B   B11       1.0  0.30300384368044614  0.5229393965102539  0.37984265384354754  1.0000
  B   B12       1.0  0.05741919274051558  0.33637243176459597  0.16561067053381323  1.0000
  B   B13       1.0  0.09494818836274342  0.4521075326416257  0.292268199312725  1.0000
  B   B14       1.0  0.2119559337989213  0.363124313289841  0.3038599551270087  1.0000
  B   B15       1.0  0.23101428290123996  0.32644543494223166  0.1738119801257188  1.0000
  B   B16       1.0  0.11175704586549302  0.38345259580876134  0.06763498633394985  1.0000
  B   B17       1.0  0.041819225623702994  0.47095338019185085  0.1551966934309999  1.0000
  B   B18       1.0  0.20483272042084177  0.5949573485725377  0.2972114237525888  1.0000
  B   B19       1.0  0.40560424374567966  0.6066459635049729  0.32376597817452335  1.0000
  B   B20       1.0  0.39434672211514116  0.45098201731594983  0.3150571090044524  1.0000
  C   C1        1.0  0.8548801161397972  0.46715086556132723  0.4898782477249624  1.0000
  C   C2        1.0  0.8452593063912469  0.5404461772663081  0.7123159717679118  1.0000
  C   C3        1.0  0.6945495703036436  0.5327090807027733  0.6408866831014788  1.0000
  C   C4        1.0  0.5654889392139586  0.47020364976670215  0.6533541901492441  1.0000
  C   C5        1.0  0.5872885144833131  0.41921007809853933  0.7395584562564548  1.0000
  C   C6        1.0  0.7390508654686903  0.43134167958364467  0.8141328589663331  1.0000
  C   C7        1.0  0.8676451746653367  0.490364061021895  0.7995133662676863  1.0000
  C   C8        1.0  0.812620370637772  0.16179900171353276  0.2992085876871497  1.0000
  C   C9        1.0  0.5031732372813867  0.06044246327642798  0.27757658201650826  1.0000
  C   C10       1.0  0.47889848877437236  0.165899651400042  0.3108789993583982  1.0000
  C   C11       1.0  0.47045542641777616  0.20236581706810466  0.41578443368589846  1.0000
  C   C12       1.0  0.4858410639623683  0.13351736691076815  0.48664003874351563  1.0000
  C   C13       1.0  0.5063122122578976  0.026518594851148148  0.45177825135679395  1.0000
  C   C14       1.0  0.5149309286818374  0.9896385519272316  0.34694870645709697  1.0000
  C   C15       1.0  0.9885969514475639  0.573448200150477  0.5989602923814507  1.0000
  C   C16       1.0  0.66779035444194  0.08284382826672596  0.18125156596624364  1.0000
  C   C17       1.0  0.8583307772691025  0.19132715674461145  0.7257062586885822  1.0000
  C   C18       1.0  0.16162054708755347  0.2906914363772537  0.7438345653683874  1.0000
  C   C19       1.0  0.182402626984115  0.18393476655848562  0.7082618294110546  1.0000
  C   C20       1.0  0.19068041416143477  0.14817713474993277  0.6032068735405175  1.0000
  C   C21       1.0  0.17843641532394547  0.21893232213672134  0.5341973409474481  1.0000
  C   C22       1.0  0.16112249451552196  0.32702635557399595  0.5710903706653919  1.0000
  C   C23       1.0  0.1531628604956501  0.3634474732338224  0.6763082629040511  1.0000
  C   C24       1.0  0.8169433796371529  0.8871895395131023  0.5262712256866338  1.0000
  C   C25       1.0  0.8223892155580438  0.7994956641981198  0.3048996304175221  1.0000
  C   C26       1.0  0.9759082144428115  0.811467633714955  0.3749161093486197  1.0000
  C   C27       1.0  0.10182918806715636  0.879399458008355  0.3621728822035685  1.0000
  C   C28       1.0  0.07443107314504926  0.9323649750933352  0.2775667951082059  1.0000
  C   C29       1.0  0.9196455337094507  0.9153141717614021  0.2037731043474419  1.0000
  C   C30       1.0  0.7935008587132311  0.8499069725468685  0.21785638668731233  1.0000
  C   C31       1.0  0.0023213573341463447  0.27251505181190955  0.8437138450810342  1.0000
  C   C32       1.0  0.6829094519590537  0.776878034748499  0.42173533339616676  1.0000
  C   C33       1.0  0.5835330436310305  0.3604491651362677  0.1139332808159173  1.0000
  C   C34       1.0  0.5795441697170142  0.4271258635099687  0.03056589461340608  1.0000
  C   C35       1.0  0.4977377902909108  0.5759232314557067  0.9716893186334228  1.0000
  C   C36       1.0  0.39330121618215214  0.641696181579507  0.9773430142764489  1.0000
  C   C37       1.0  0.14595884266826356  0.7488808822790177  0.0776340848665014  1.0000
  C   C38       1.0  0.05111807588117009  0.8022886636032677  0.0012914862518484322  1.0000
  C   C39       1.0  0.01739660613094815  0.873273933511761  0.8430500940558094  1.0000
  C   C40       1.0  0.06843794620009923  0.008551050260877975  0.9073933169403023  1.0000
  N   N1        1.0  0.1169356454843449  0.6391988759479837  0.597061913196484  1.0000
  N   N2        1.0  0.9788517615315684  0.6013448028697657  0.6999897994844565  1.0000
  N   N3        1.0  0.6819238233215529  0.061484805876210635  0.08424398275716556  1.0000
  N   N4        1.0  0.5258301006040217  0.029477861379494572  0.1753618565084044  1.0000
  N   N5        1.0  0.9877638568290941  0.29657074415955376  0.9405182264709265  1.0000
  N   N6        1.0  0.1437751296055887  0.32273422590718437  0.8482103133518992  1.0000
  N   N7        1.0  0.5524802020343919  0.7185215595074746  0.42466146565428226  1.0000
  N   N8        1.0  0.6939313599641903  0.7369939606177337  0.3221747723968715  1.0000
  O   O1        1.0  0.4794773950139177  0.4909890842983898  0.029368481869864557  1.0000
  O   O2        1.0  0.1033286855886226  0.8199842674611664  0.9163272901761855  1.0000
