data_image0
_chemical_formula_structural       H24C48N4F16I4
_chemical_formula_sum              "H24 C48 N4 F16 I4"
_cell_length_a       7.939136025741342
_cell_length_b       10.001147506022365
_cell_length_c       15.00796694005738
_cell_angle_alpha    80.75030869569369
_cell_angle_beta     78.49109469854078
_cell_angle_gamma    84.59062953074032

_space_group_name_H-M_alt    "P 1"
_space_group_IT_number       1

loop_
  _space_group_symop_operation_xyz
  'x, y, z'

loop_
  _atom_site_type_symbol
  _atom_site_label
  _atom_site_symmetry_multiplicity
  _atom_site_fract_x
  _atom_site_fract_y
  _atom_site_fract_z
  _atom_site_occupancy
  H   H1        1.0  0.5458621472981191  0.2875538332449289  0.8826886455487866  1.0000
  H   H2        1.0  0.45413785315087196  0.7124461664988369  0.11731135464132354  1.0000
  H   H3        1.0  0.31635138555595615  0.47035622197923677  0.9126357409252922  1.0000
  H   H4        1.0  0.6836486135062235  0.5296437787622916  0.08736425926981214  1.0000
  H   H5        1.0  0.28978395835576076  0.33237375301837213  0.20201149988506242  1.0000
  H   H6        1.0  0.7102160420932305  0.6676262467253936  0.7979885003050475  1.0000
  H   H7        1.0  0.016708563648693178  0.4876505681267566  0.09321699400832996  1.0000
  H   H8        1.0  0.983291436673009  0.5123494326206437  0.9067830061850253  1.0000
  H   H9        1.0  0.1534396129555636  0.5629393884108227  0.14761318378615376  1.0000
  H   H10       1.0  0.8465603863445007  0.43706061248312544  0.8523868157216627  1.0000
  H   H11       1.0  0.15287884172144056  0.6130111842379734  0.028420201825252116  1.0000
  H   H12       1.0  0.8471211574680281  0.38698881549992037  0.9715797983666071  1.0000
  H   H13       1.0  0.5214916650781686  0.09016048972556553  0.403257828650053  1.0000
  H   H14       1.0  0.4785083341113002  0.9098395100123283  0.5967421715418062  1.0000
  H   H15       1.0  0.6801808960517403  0.870906249824  0.37530115836437705  1.0000
  H   H16       1.0  0.3198191042699618  0.12909375092340045  0.6246988418289781  1.0000
  H   H17       1.0  0.6414279904670444  0.9807983625073582  0.08989799261882998  1.0000
  H   H18       1.0  0.3585720098546577  0.019201638240042177  0.9101020075745252  1.0000
  H   H19       1.0  0.6829554422114649  0.6900589015222096  0.23916103468775635  1.0000
  H   H20       1.0  0.31704455847541085  0.30994109837397604  0.760838964815066  1.0000
  H   H21       1.0  0.8025861252906955  0.7709167037203808  0.13428543475579863  1.0000
  H   H22       1.0  0.19741387515829575  0.22908329602338495  0.8657145654343115  1.0000
  H   H23       1.0  0.8833095878459303  0.753648177975028  0.23818150590643103  1.0000
  H   H24       1.0  0.11669041121624947  0.24635182276650044  0.7618184942886733  1.0000
  C   C1        1.0  0.27763112124220257  0.5008295422396324  0.46701649034764553  1.0000
  C   C2        1.0  0.7223688792067886  0.4991704575041335  0.5329835098424646  1.0000
  C   C3        1.0  0.3118458519991874  0.6375832947766037  0.45185939679908543  1.0000
  C   C4        1.0  0.6881541483225148  0.3624167059707966  0.5481406033942697  1.0000
  C   C5        1.0  0.24412750373040143  0.7225639285408119  0.5170823527731452  1.0000
  C   C6        1.0  0.755872495696952  0.2774360713495016  0.48291764673142623  1.0000
  C   C7        1.0  0.1404872608008841  0.6740023229512374  0.6008559063192298  1.0000
  C   C8        1.0  0.8595127383885847  0.3259976767866564  0.39914409387262945  1.0000
  C   C9        1.0  0.10839988619834184  0.5362768049094953  0.6157888777035966  1.0000
  C   C10       1.0  0.8916001142506492  0.46372319483427044  0.38421112248651357  1.0000
  C   C11       1.0  0.17438243868389733  0.45174636370690063  0.5502425949545584  1.0000
  C   C12       1.0  0.825617561765094  0.5482536360368652  0.4497574052355516  1.0000
  C   C13       1.0  0.9301490898869509  0.9337574734906741  0.80557403516855  1.0000
  C   C14       1.0  0.06985091056204035  0.06624252625309175  0.1944259650215601  1.0000
  C   C15       1.0  0.036063806678829864  0.8180389012604121  0.8257961629382856  1.0000
  C   C16       1.0  0.9639361938807569  0.18196109963940796  0.17420383656778177  1.0000
  C   C17       1.0  0.10547789428903724  0.7352179437514605  0.7596098930173353  1.0000
  C   C18       1.0  0.8945221061599539  0.2647820559923053  0.24039010717277473  1.0000
  C   C19       1.0  0.06997935459687925  0.7629524401709776  0.6705757485024402  1.0000
  C   C20       1.0  0.9300206445925896  0.237047559566916  0.329424251689419  1.0000
  C   C21       1.0  0.9627078137265229  0.8788331783222568  0.6509041118676415  1.0000
  C   C22       1.0  0.0372921867224682  0.12116682142150888  0.3490958883224685  1.0000
  C   C23       1.0  0.8962014727900093  0.9635288074168311  0.716557023182715  1.0000
  C   C24       1.0  0.10379852776957749  0.036471193482989106  0.28344297632335247  1.0000
  C   C25       1.0  0.47502182812497096  0.22642200395465537  0.10776317732237677  1.0000
  C   C26       1.0  0.5249781723240203  0.7735779957891104  0.8922368228677333  1.0000
  C   C27       1.0  0.4859059582869365  0.30039463580533404  0.9532528416074196  1.0000
  C   C28       1.0  0.5140940421620548  0.6996053639384318  0.046747158582690324  1.0000
  C   C29       1.0  0.3564656987019178  0.4022411304076011  0.9700485928135034  1.0000
  C   C30       1.0  0.6435343007254356  0.5977588694827126  0.02995140669106794  1.0000
  C   C31       1.0  0.2833627845929668  0.41770091519993985  0.061009571761365074  1.0000
  C   C32       1.0  0.716637216093909  0.5822990846962457  0.9389904277414572  1.0000
  C   C33       1.0  0.34447881138484626  0.32647033021781346  0.13010180606786592  1.0000
  C   C34       1.0  0.6555211890641448  0.6735296695259524  0.8698981941222441  1.0000
  C   C35       1.0  0.14510421338574742  0.5265192004461852  0.08364364927267362  1.0000
  C   C36       1.0  0.8548957858037215  0.47348079929170855  0.9163563509191854  1.0000
  C   C37       1.0  0.5355135092764212  0.12596939275142308  0.18093690877067953  1.0000
  C   C38       1.0  0.4644864899130476  0.874030606986471  0.8190630914211797  1.0000
  C   C39       1.0  0.552573571528065  0.06329875810425914  0.33392983723895164  1.0000
  C   C40       1.0  0.4474264276614039  0.9367012416336344  0.6660701629529077  1.0000
  C   C41       1.0  0.6409991563784149  0.9402366850140891  0.3181926159060018  1.0000
  C   C42       1.0  0.3590008440705763  0.0597633147296767  0.6818073842841083  1.0000
  C   C43       1.0  0.6760116497210927  0.9069791944929562  0.22881871942569273  1.0000
  C   C44       1.0  0.32398835060060927  0.09302080625444431  0.7711812807676625  1.0000
  C   C45       1.0  0.6203333437864896  0.002285891666321755  0.1602198053795118  1.0000
  C   C46       1.0  0.37966665666250154  0.9977141080774439  0.8397801948105983  1.0000
  C   C47       1.0  0.7664095883287273  0.7737630947576443  0.2083637557721109  1.0000
  C   C48       1.0  0.23359041212026393  0.22623690498612142  0.7916362444179992  1.0000
  N   N1        1.0  0.5463534824588653  0.21448438570254336  0.019438481141577445  1.0000
  N   N2        1.0  0.45364651673060363  0.7855156140353505  0.9805615190502818  1.0000
  N   N3        1.0  0.5010954357398032  0.15556670514854753  0.2677613589781067  1.0000
  N   N4        1.0  0.49890456368755026  0.8444332947417661  0.7322386405264647  1.0000
  F   F1        1.0  0.4154565662532726  0.689409931075253  0.37337598907394864  1.0000
  F   F2        1.0  0.5845434341957186  0.3105900686685128  0.6266240111161614  1.0000
  F   F3        1.0  0.28498179135735785  0.8535401186484426  0.4999674422769338  1.0000
  F   F4        1.0  0.7150182078321111  0.1464598810894514  0.5000325579149254  1.0000
  F   F5        1.0  0.0074600035041678114  0.48345380828332823  0.695088541008547  1.0000
  F   F6        1.0  0.9925399968175341  0.5165461924640723  0.3049114591848081  1.0000
  F   F7        1.0  0.13367139015681365  0.3201598675534699  0.5683931155976656  1.0000
  F   F8        1.0  0.8663286090326552  0.6798401321844239  0.43160688459419355  1.0000
  F   F9        1.0  0.07103515704501255  0.7828000836901609  0.9115053458019744  1.0000
  F   F10       1.0  0.9289648421444562  0.21719991604773292  0.08849465438988481  1.0000
  F   F11       1.0  0.21036073832334998  0.625153320881445  0.7824461339976748  1.0000
  F   F12       1.0  0.7896392608661188  0.3748466788564488  0.2175538661941843  1.0000
  F   F13       1.0  0.9182774624053791  0.9073766337276737  0.5674607266234223  1.0000
  F   F14       1.0  0.08172253665680074  0.0926233670138547  0.43253927357168204  1.0000
  F   F15       1.0  0.7936759176250948  0.07396915177416401  0.6932561718091544  1.0000
  F   F16       1.0  0.20632408167496966  0.9260308491197842  0.3067438276986619  1.0000
  I   I1        1.0  0.8067569189450882  0.0504769085354454  0.9069081865505562  1.0000
  I   I2        1.0  0.19324308035497625  0.9495230923585031  0.09309181295726036  1.0000
  I   I3        1.0  0.3765863046581727  0.37138942305290634  0.36896178612716957  1.0000
  I   I4        1.0  0.6234136957908184  0.6286105766908596  0.6310382140629405  1.0000
