data_image0
_chemical_formula_structural       H48C80N8F32I8
_chemical_formula_sum              "H48 C80 N8 F32 I8"
_cell_length_a       13.744320916317772
_cell_length_b       13.812918026571294
_cell_length_c       11.445659957049573
_cell_angle_alpha    90.0
_cell_angle_beta     104.95077479553568
_cell_angle_gamma    90.0

_space_group_name_H-M_alt    "P 1"
_space_group_IT_number       1

loop_
  _space_group_symop_operation_xyz
  'x, y, z'

loop_
  _atom_site_type_symbol
  _atom_site_label
  _atom_site_symmetry_multiplicity
  _atom_site_fract_x
  _atom_site_fract_y
  _atom_site_fract_z
  _atom_site_occupancy
  H   H1        1.0  0.6656732896163231  0.5562190671964128  0.6291870008110549  1.0000
  H   H2        1.0  0.33432671057379876  0.5562190671964128  0.8708129985227938  1.0000
  H   H3        1.0  0.16567329008508438  0.05621906743428048  0.6291870014404629  1.0000
  H   H4        1.0  0.8343267102976692  0.05621906743428048  0.8708129987976899  1.0000
  H   H5        1.0  0.3343267103263384  0.4437809330518118  0.37081299892810826  1.0000
  H   H6        1.0  0.6656732900968749  0.4437809330518118  0.1291870012184209  1.0000
  H   H7        1.0  0.8343267100502089  0.9437809328139442  0.37081299920300437  1.0000
  H   H8        1.0  0.16567328964499234  0.9437809328139442  0.12918700094147337  1.0000
  H   H9        1.0  0.5632166736819016  0.5896448002031414  0.5054065077617024  1.0000
  H   H10       1.0  0.4367833259728399  0.5896448002031414  0.9945934924743991  1.0000
  H   H11       1.0  0.06321667395803109  0.08964479971704904  0.5054065074868062  1.0000
  H   H12       1.0  0.9367833264247225  0.08964479971704904  0.9945934927513467  1.0000
  H   H13       1.0  0.43678332645339174  0.41035520004508325  0.49459349288176496  1.0000
  H   H14       1.0  0.5632166739698217  0.41035520004508325  0.005406507264764185  1.0000
  H   H15       1.0  0.9367833259846303  0.9103551998072156  0.49459349225235705  1.0000
  H   H16       1.0  0.06321667351793903  0.9103551998072156  0.005406506987816639  1.0000
  H   H17       1.0  0.6644213143740102  0.5184241306742572  0.481857075028092  1.0000
  H   H18       1.0  0.33557868604920305  0.5184241306742572  0.01814292511843711  1.0000
  H   H19       1.0  0.16442131392212772  0.018424130188164953  0.48185707475114453  1.0000
  H   H20       1.0  0.8355786857730734  0.018424130188164953  0.018142925393333172  1.0000
  H   H21       1.0  0.33557868576128297  0.48157586957396736  0.5181429256153752  1.0000
  H   H22       1.0  0.6644213138934585  0.48157586957396736  0.9818570746207262  1.0000
  H   H23       1.0  0.8355786860205339  0.9815758693360996  0.5181429249880187  1.0000
  H   H24       1.0  0.164421314169588  0.9815758693360996  0.98185707434583  1.0000
  H   H25       1.0  0.6455244644706443  0.9333262627925768  0.30964278995669625  1.0000
  H   H26       1.0  0.35447553595256903  0.9333262627925768  0.19035721018983287  1.0000
  H   H27       1.0  0.1455244640187617  0.43332626230648447  0.30964278967974873  1.0000
  H   H28       1.0  0.8544755356764395  0.43332626230648447  0.19035721046472895  1.0000
  H   H29       1.0  0.35447553547201727  0.06667373745564786  0.6903572097824668  1.0000
  H   H30       1.0  0.6455244639900924  0.06667373745564786  0.8096427895493304  1.0000
  H   H31       1.0  0.8544755359238998  0.5666737372177801  0.6903572100594145  1.0000
  H   H32       1.0  0.14552446445885378  0.5666737372177801  0.8096427901787384  1.0000
  H   H33       1.0  0.5534553066622961  0.9024817787248061  0.3877483784842494  1.0000
  H   H34       1.0  0.4465446930329051  0.9024817787248061  0.1122516216602282  1.0000
  H   H35       1.0  0.05345530693842562  0.4024817789626738  0.38774837820935343  1.0000
  H   H36       1.0  0.9465446934847878  0.4024817789626738  0.11225162193717572  1.0000
  H   H37       1.0  0.4465446934729972  0.09751822152341849  0.6122516221592178  1.0000
  H   H38       1.0  0.5534553069097564  0.09751822152341849  0.8877483780789351  1.0000
  H   H39       1.0  0.9465446930042359  0.5975182212855508  0.6122516215298098  1.0000
  H   H40       1.0  0.05345530645787376  0.5975182212855508  0.8877483778019873  1.0000
  H   H41       1.0  0.6568881307052857  0.9786105400753883  0.4569641591624655  1.0000
  H   H42       1.0  0.3431118689899155  0.9786105400753883  0.04303584098201213  1.0000
  H   H43       1.0  0.15688813098141527  0.47861054031325595  0.45696415888756947  1.0000
  H   H44       1.0  0.843111868713786  0.47861054031325595  0.04303584125690819  1.0000
  H   H45       1.0  0.34311186943000754  0.021389459448876363  0.5430358414810017  1.0000
  H   H46       1.0  0.656888130952746  0.021389459448876363  0.956964158757151  1.0000
  H   H47       1.0  0.8431118689612462  0.5213894599349687  0.5430358408515937  1.0000
  H   H48       1.0  0.15688813122887554  0.5213894599349687  0.9569641584822549  1.0000
  C   C1        1.0  0.2703917097843994  0.7331042984922136  0.3255375009205662  1.0000
  C   C2        1.0  0.7296082899108018  0.7331042984922136  0.17446249922391147  1.0000
  C   C3        1.0  0.770391710236282  0.23310429873008132  0.3255375011975138  1.0000
  C   C4        1.0  0.22960829018693135  0.23310429873008132  0.17446249894901542  1.0000
  C   C5        1.0  0.7296082901582621  0.266895701756011  0.674462498818597  1.0000
  C   C6        1.0  0.27039171003185963  0.266895701756011  0.8255375005152518  1.0000
  C   C7        1.0  0.22960828989901136  0.7668957015181433  0.6744624994459535  1.0000
  C   C8        1.0  0.7703917097557301  0.7668957015181433  0.8255375007901478  1.0000
  C   C9        1.0  0.11245276063613097  0.8124333474225066  0.32492992871433457  1.0000
  C   C10       1.0  0.8875472390590703  0.8124333474225066  0.17507007143014305  1.0000
  C   C11       1.0  0.6124527610880135  0.3124333476603743  0.32492992899128215  1.0000
  C   C12       1.0  0.38754723933519974  0.3124333476603743  0.175070071155247  1.0000
  C   C13       1.0  0.8875472393065306  0.18756665282571802  0.6750700710248286  1.0000
  C   C14       1.0  0.11245276107622307  0.18756665282571802  0.8249299292133242  1.0000
  C   C15       1.0  0.3875472388546479  0.6875666525878503  0.6750700707478811  1.0000
  C   C16       1.0  0.6124527606074618  0.6875666525878503  0.8249299285839161  1.0000
  C   C17       1.0  0.05543465282822705  0.7348017247677404  0.26426416645075407  1.0000
  C   C18       1.0  0.9445653468669741  0.7348017247677404  0.23573583369372356  1.0000
  C   C19       1.0  0.5554346532801097  0.2348017242816481  0.26426416672770164  1.0000
  C   C20       1.0  0.4445653471431037  0.2348017242816481  0.23573583341882753  1.0000
  C   C21       1.0  0.9445653471144345  0.2651982754804842  0.7357358332884091  1.0000
  C   C22       1.0  0.055434653075687366  0.2651982754804842  0.7642641660454398  1.0000
  C   C23       1.0  0.44456534685518373  0.7651982752426165  0.7357358339157656  1.0000
  C   C24       1.0  0.5554346527995578  0.7651982752426165  0.7642641663203357  1.0000
  C   C25       1.0  0.10961067236802204  0.6572673263198664  0.23275627837721588  1.0000
  C   C26       1.0  0.8903893273271792  0.6572673263198664  0.2672437217672618  1.0000
  C   C27       1.0  0.6096106728199046  0.15726732655773412  0.23275627865416346  1.0000
  C   C28       1.0  0.39038932760330874  0.15726732655773412  0.26724372149236575  1.0000
  C   C29       1.0  0.8903893275746395  0.34273267320439815  0.7672437213619474  1.0000
  C   C30       1.0  0.10961067261548228  0.34273267320439815  0.7327562779719013  1.0000
  C   C31       1.0  0.3903893273153887  0.8427326736904904  0.7672437219893038  1.0000
  C   C32       1.0  0.6096106723393526  0.8427326736904904  0.7327562782467975  1.0000
  C   C33       1.0  0.21704459008437418  0.8112927419422097  0.3546729367909818  1.0000
  C   C34       1.0  0.782955409610827  0.8112927419422097  0.1453270633534959  1.0000
  C   C35       1.0  0.717044590343625  0.3112927421800773  0.35467293616362533  1.0000
  C   C36       1.0  0.28295540988695655  0.3112927421800773  0.14532706307859983  1.0000
  C   C37       1.0  0.7829554100509192  0.18870725758205498  0.6453270638524855  1.0000
  C   C38       1.0  0.21704459033183449  0.18870725758205498  0.8546729363856674  1.0000
  C   C39       1.0  0.28295540959903653  0.6887072580681474  0.6453270635755379  1.0000
  C   C40       1.0  0.717044590055705  0.6887072580681474  0.8546729366605633  1.0000
  C   C41       1.0  0.21446529364215117  0.6562245010477342  0.26336163675384083  1.0000
  C   C42       1.0  0.7855347067810621  0.6562245010477342  0.23663836339268832  1.0000
  C   C43       1.0  0.7144652931733898  0.15622450128560186  0.2633616361244329  1.0000
  C   C44       1.0  0.28553470632917954  0.15622450128560186  0.23663836311574077  1.0000
  C   C45       1.0  0.7855347064931422  0.3437754984765305  0.7366383638896264  1.0000
  C   C46       1.0  0.21446529316159937  0.3437754984765305  0.763361636346475  1.0000
  C   C47       1.0  0.2855347067692717  0.8437754989626228  0.7366383636147303  1.0000
  C   C48       1.0  0.7144652936134819  0.8437754989626228  0.7633616366234224  1.0000
  C   C49       1.0  0.6942410586219121  0.8281933938935879  0.4510961800313526  1.0000
  C   C50       1.0  0.30575894107328916  0.8281933938935879  0.04890382011312512  1.0000
  C   C51       1.0  0.19424105909067338  0.32819339413145554  0.4510961806607605  1.0000
  C   C52       1.0  0.80575894133254  0.32819339413145554  0.04890381948576864  1.0000
  C   C53       1.0  0.3057589413207495  0.17180660563067676  0.5489038197078108  1.0000
  C   C54       1.0  0.6942410590620041  0.17180660563067676  0.9510961805303421  1.0000
  C   C55       1.0  0.80575894104462  0.6718066061167691  0.5489038199827068  1.0000
  C   C56       1.0  0.1942410586101215  0.6718066061167691  0.9510961802533945  1.0000
  C   C57       1.0  0.6993919098408017  0.6686525397626365  0.5157726020811384  1.0000
  C   C58       1.0  0.300608090541952  0.6686525397626365  0.9842273981570144  1.0000
  C   C59       1.0  0.19939190938891904  0.16865254000050417  0.5157726018041908  1.0000
  C   C60       1.0  0.8006080902658224  0.16865254000050417  0.9842273984319103  1.0000
  C   C61       1.0  0.3006080902944917  0.33134745976162816  0.4842273985623288  1.0000
  C   C62       1.0  0.6993919094007096  0.33134745976162816  0.015772601582148837  1.0000
  C   C63       1.0  0.8006080905537425  0.8313474602477205  0.4842273979349724  1.0000
  C   C64       1.0  0.1993919096768391  0.8313474602477205  0.01577260130725278  1.0000
  C   C65       1.0  0.6447061798383396  0.5786729961492503  0.5338952714825187  1.0000
  C   C66       1.0  0.35529382054441416  0.5786729961492503  0.9661047287556342  1.0000
  C   C67       1.0  0.14470618011446898  0.07867299566315798  0.5338952712076226  1.0000
  C   C68       1.0  0.8552938202682847  0.07867299566315798  0.9661047290305302  1.0000
  C   C69       1.0  0.35529382029695383  0.42132700409897433  0.4661047291609485  1.0000
  C   C70       1.0  0.6447061801262596  0.42132700409897433  0.033895270985580574  1.0000
  C   C71       1.0  0.8552938198281925  0.9213270038611067  0.4661047285315406  1.0000
  C   C72       1.0  0.14470617967437693  0.9213270038611067  0.03389527070863303  1.0000
  C   C73       1.0  0.6338118617939938  0.9152050121257377  0.39857797334601186  1.0000
  C   C74       1.0  0.36618813862921956  0.9152050121257377  0.10142202680051722  1.0000
  C   C75       1.0  0.13381186134211123  0.4152050123636053  0.3985779730690644  1.0000
  C   C76       1.0  0.86618813835309  0.4152050123636053  0.10142202707541327  1.0000
  C   C77       1.0  0.36618813814866774  0.08479498812248704  0.6014220263931513  1.0000
  C   C78       1.0  0.6338118613134419  0.08479498812248704  0.8985779729386459  1.0000
  C   C79       1.0  0.8661881386005502  0.5847949878846194  0.6014220266700988  1.0000
  C   C80       1.0  0.1338118617822033  0.5847949878846194  0.898577973568054  1.0000
  N   N1        1.0  0.6456253831795247  0.746713750864144  0.46709606480535787  1.0000
  N   N2        1.0  0.35437461705105694  0.746713750864144  0.032903934436867316  1.0000
  N   N3        1.0  0.14562538292027385  0.24671375037805165  0.46709606543271426  1.0000
  N   N4        1.0  0.8543746167749273  0.24671375037805165  0.03290393471176337  1.0000
  N   N5        1.0  0.3543746167631369  0.2532862493840806  0.5329039349338054  1.0000
  N   N6        1.0  0.6456253828916046  0.2532862493840806  0.9670960653022959  1.0000
  N   N7        1.0  0.8543746172150195  0.753286249146213  0.532903935210753  1.0000
  N   N8        1.0  0.14562538316773416  0.753286249146213  0.9670960650273999  1.0000
  F   F1        1.0  0.06605274343812165  0.8900297458039467  0.3585528001611569  1.0000
  F   F2        1.0  0.9339472569850916  0.8900297458039467  0.14144719998537225  1.0000
  F   F3        1.0  0.5660527431619922  0.39002974604181423  0.358552800436053  1.0000
  F   F4        1.0  0.43394725653320915  0.39002974604181423  0.1414471997084247  1.0000
  F   F5        1.0  0.9339472565045398  0.10997025444427803  0.6414471995780063  1.0000
  F   F6        1.0  0.06605274315020157  0.10997025444427803  0.8585528006580949  1.0000
  F   F7        1.0  0.4339472567806694  0.6099702542064104  0.6414471993031103  1.0000
  F   F8        1.0  0.5660527434094523  0.6099702542064104  0.8585528000307385  1.0000
  F   F9        1.0  0.05970220856123823  0.5819903820855059  0.16838242268438697  1.0000
  F   F10       1.0  0.9402977909413311  0.5819903820855059  0.3316175765557867  1.0000
  F   F11       1.0  0.5597022082851087  0.08199038232337363  0.16838242295928302  1.0000
  F   F12       1.0  0.44029779141009256  0.08199038232337363  0.3316175771851947  1.0000
  F   F13       1.0  0.9402977913814233  0.4180096174387587  0.8316175770547765  1.0000
  F   F14       1.0  0.05970220900133032  0.4180096174387587  0.6683824231833766  1.0000
  F   F15       1.0  0.4402977916575528  0.918009617924851  0.8316175767798801  1.0000
  F   F16       1.0  0.5597022087252008  0.918009617924851  0.6683824234582726  1.0000
  F   F17       1.0  0.26145064147555475  0.5785746020230138  0.2302930186046531  1.0000
  F   F18       1.0  0.7385493587550268  0.5785746020230138  0.2697069806375721  1.0000
  F   F19       1.0  0.7614506411994251  0.07857460226088152  0.23029301887954914  1.0000
  F   F20       1.0  0.23854935849577605  0.07857460226088152  0.26970698126492854  1.0000
  F   F21       1.0  0.7385493584671069  0.4214253982252108  0.7697069811345101  1.0000
  F   F22       1.0  0.26145064118763467  0.4214253982252108  0.7302930191015912  1.0000
  F   F23       1.0  0.23854935874323635  0.921425397987343  0.7697069808596142  1.0000
  F   F24       1.0  0.7614506416395173  0.921425397987343  0.7302930193785387  1.0000
  F   F25       1.0  0.2670964293558463  0.8881892143571448  0.41551947404136463  1.0000
  F   F26       1.0  0.7329035710673671  0.8881892143571448  0.08448052610516454  1.0000
  F   F27       1.0  0.7670964290797168  0.38818921459501243  0.41551947431626063  1.0000
  F   F28       1.0  0.23290357061548445  0.38818921459501243  0.084480525828217  1.0000
  F   F29       1.0  0.7329035705868153  0.11181078516711986  0.5844805256977986  1.0000
  F   F30       1.0  0.26709642906792624  0.11181078516711986  0.9155194745383026  1.0000
  F   F31       1.0  0.23290357086294478  0.6118107849292521  0.5844805254229026  1.0000
  F   F32       1.0  0.767096429327177  0.6118107849292521  0.9155194739109462  1.0000
  I   I1        1.0  0.4291223133429482  0.7340900431389138  0.3791560547953199  1.0000
  I   I2        1.0  0.5708776870802651  0.7340900431389138  0.12084394535120929  1.0000
  I   I3        1.0  0.9291223130668188  0.2340900433767814  0.3791560550702159  1.0000
  I   I4        1.0  0.07087768662838252  0.2340900433767814  0.12084394507426174  1.0000
  I   I5        1.0  0.5708776865997133  0.2659099563853509  0.6208439449438433  1.0000
  I   I6        1.0  0.4291223130550282  0.2659099563853509  0.8791560552922579  1.0000
  I   I7        1.0  0.0708776868758428  0.7659099568714433  0.6208439446689473  1.0000
  I   I8        1.0  0.929122313314279  0.7659099568714433  0.8791560546649014  1.0000
