data_image0
_chemical_formula_structural       H20C48N4F16Br4
_chemical_formula_sum              "H20 C48 N4 F16 Br4"
_cell_length_a       7.323554479349191
_cell_length_b       11.174090760838816
_cell_length_c       13.868205732416847
_cell_angle_alpha    88.68335794664186
_cell_angle_beta     78.29695019079635
_cell_angle_gamma    76.57069643824506

_space_group_name_H-M_alt    "P 1"
_space_group_IT_number       1

loop_
  _space_group_symop_operation_xyz
  'x, y, z'

loop_
  _atom_site_type_symbol
  _atom_site_label
  _atom_site_symmetry_multiplicity
  _atom_site_fract_x
  _atom_site_fract_y
  _atom_site_fract_z
  _atom_site_occupancy
  H   H1        1.0  0.196712941423802  0.79667615186611  0.4903317571296476  1.0000
  H   H2        1.0  0.8032870579785084  0.2033238487002647  0.5096682428405619  1.0000
  H   H3        1.0  0.09246083789317752  0.7346118652341679  0.7089857460731595  1.0000
  H   H4        1.0  0.9075391615091327  0.2653881353322066  0.2910142538970502  1.0000
  H   H5        1.0  0.18783778120911446  0.6371704052618288  0.3799334083628343  1.0000
  H   H6        1.0  0.8121622198845524  0.36282959438283036  0.6200665916033639  1.0000
  H   H7        1.0  0.24436416017283155  0.4143688320525248  0.3404768835161648  1.0000
  H   H8        1.0  0.7556358392294791  0.5856311685138499  0.6595231164540448  1.0000
  H   H9        1.0  0.33338123523125857  0.31986127033371015  0.6208078643493105  1.0000
  H   H10       1.0  0.666618764496026  0.6801387293124929  0.37919213561788  1.0000
  H   H11       1.0  0.2763798638094164  0.5376789516952105  0.6730380380906724  1.0000
  H   H12       1.0  0.723620135592894  0.462321048871164  0.32696196187953724  1.0000
  H   H13       1.0  0.21330553519350853  0.9766742788567959  0.520012844206069  1.0000
  H   H14       1.0  0.7866944645337761  0.02332572078940699  0.47998715576112144  1.0000
  H   H15       1.0  0.14756944944994468  0.19594162053114864  0.5659864689226026  1.0000
  H   H16       1.0  0.8524305499523658  0.8040583800352258  0.4340135310476068  1.0000
  H   H17       1.0  0.8891522536259805  0.13666088069463175  0.852668228528069  1.0000
  H   H18       1.0  0.11084774714271217  0.8633391198701992  0.1473317714411482  1.0000
  H   H19       1.0  0.9442524295873451  0.9121180713576084  0.8182712887642938  1.0000
  H   H20       1.0  0.055747571181347676  0.08788192920722229  0.18172871120492343  1.0000
  C   C1        1.0  0.49970314679615657  0.027925985875033112  0.25660263431357705  1.0000
  C   C2        1.0  0.5002968542975106  0.972074013769626  0.7433973656526212  1.0000
  C   C3        1.0  0.5951363001680007  0.05597200864834272  0.16426447988997725  1.0000
  C   C4        1.0  0.404863699559284  0.9440279909978602  0.8357355200772132  1.0000
  C   C5        1.0  0.6632652444352354  0.9669389052008839  0.08871741036159986  1.0000
  C   C6        1.0  0.33673475529204927  0.03306109444531911  0.9112825896055906  1.0000
  C   C7        1.0  0.6420448815175192  0.8460460531092375  0.10230203156732275  1.0000
  C   C8        1.0  0.3579551182097656  0.15395394653696534  0.8976979683998677  1.0000
  C   C9        1.0  0.5491394041794125  0.8184448396046985  0.19588955941675787  1.0000
  C   C10       1.0  0.4508605955478721  0.18155516004150452  0.8041104405504326  1.0000
  C   C11       1.0  0.4791924575471645  0.9076304387169617  0.270983869593788  1.0000
  C   C12       1.0  0.520807541855146  0.09236956184941285  0.7290161303764215  1.0000
  C   C13       1.0  0.7126476250455012  0.7504261224362812  0.023346172512162526  1.0000
  C   C14       1.0  0.28735237468178343  0.24957387720992172  0.9766538274550279  1.0000
  C   C15       1.0  0.9058567886698619  0.7160753805940957  0.9759749290263617  1.0000
  C   C16       1.0  0.09414321242380497  0.2839246190505634  0.024025070939836378  1.0000
  C   C17       1.0  0.9733150544534934  0.6181500235784883  0.9078041451631638  1.0000
  C   C18       1.0  0.026684944948817138  0.3818499769878862  0.0921958548070458  1.0000
  C   C19       1.0  0.8485579363965429  0.5522914829240767  0.8828648803553133  1.0000
  C   C20       1.0  0.15144206300576749  0.44770851764229797  0.11713511961489621  1.0000
  C   C21       1.0  0.6540286991241496  0.5905615073024214  0.9251577839016408  1.0000
  C   C22       1.0  0.34597130164454304  0.4094384932624094  0.0748422160675762  1.0000
  C   C23       1.0  0.5885042600778763  0.6858387347170364  0.9954577064773539  1.0000
  C   C24       1.0  0.41149573964940855  0.31416126492916635  0.004542293489836616  1.0000
  C   C25       1.0  0.1806632055337148  0.7385958199220435  0.5542636118439768  1.0000
  C   C26       1.0  0.8193367938685957  0.26140418064433113  0.4457363881262328  1.0000
  C   C27       1.0  0.11898140476601331  0.7917675279557936  0.6450087638987773  1.0000
  C   C28       1.0  0.8810185963276538  0.2082324716888654  0.3549912360674207  1.0000
  C   C29       1.0  0.22123032635581297  0.6076728852136004  0.5312656898404373  1.0000
  C   C30       1.0  0.7787696733714717  0.3923271144326025  0.4687343101267531  1.0000
  C   C31       1.0  0.2177693110793554  0.5695553051665987  0.4359109676882616  1.0000
  C   C32       1.0  0.7822306886479294  0.43044469447960426  0.5640890322789288  1.0000
  C   C33       1.0  0.24996394504437042  0.4449864548699648  0.41377582702808746  1.0000
  C   C34       1.0  0.75003605435794  0.5550135456964097  0.586224172942122  1.0000
  C   C35       1.0  0.2982609702432931  0.39269546670156813  0.5692788713949488  1.0000
  C   C36       1.0  0.701739030850374  0.607304532943091  0.4307211285712492  1.0000
  C   C37       1.0  0.26499197639970606  0.5152299029423492  0.5988016075284724  1.0000
  C   C38       1.0  0.7350080233275786  0.4847700967038537  0.401198392438718  1.0000
  C   C39       1.0  0.08122991472533161  0.9234252482334352  0.6652014968136212  1.0000
  C   C40       1.0  0.9187700846769787  0.07657475233293938  0.3347985031565885  1.0000
  C   C41       1.0  0.13751737473701345  0.007200408165794427  0.5943786290472018  1.0000
  C   C42       1.0  0.8624826249902711  0.9927995914804084  0.4056213709199886  1.0000
  C   C43       1.0  0.10231649979164564  0.13082781261684295  0.620497620110358  1.0000
  C   C44       1.0  0.8976834996106647  0.8691721879495315  0.3795023798598516  1.0000
  C   C45       1.0  0.959616136251392  0.09789508425344647  0.7793721767754934  1.0000
  C   C46       1.0  0.040383863475892796  0.9021049153927565  0.2206278231916971  1.0000
  C   C47       1.0  0.9898596043551542  0.9722088296970094  0.7598152523089767  1.0000
  C   C48       1.0  0.010140395372130382  0.027791169949193572  0.24018474765821385  1.0000
  N   N1        1.0  0.28966265843701755  0.3565742682964491  0.47881849910645535  1.0000
  N   N2        1.0  0.7103373423316753  0.6434257322683816  0.5211815008627617  1.0000
  N   N3        1.0  0.015050844857736376  0.17706811975685616  0.7115656025657426  1.0000
  N   N4        1.0  0.9849491562359306  0.822931879887803  0.2884343974004554  1.0000
  F   F1        1.0  0.6233511689141231  0.17049878672566918  0.14774581948008855  1.0000
  F   F2        1.0  0.37664883081316164  0.8295012129205337  0.852254180487102  1.0000
  F   F3        1.0  0.7500314118724307  0.9996065308179722  0.9994768621063831  1.0000
  F   F4        1.0  0.2499685878548539  0.00039346882823057826  0.0005231378608072954  1.0000
  F   F5        1.0  0.528429480574225  0.702666690309786  0.21527029627581953  1.0000
  F   F6        1.0  0.4715705188650275  0.29733330935596225  0.7847297044279822  1.0000
  F   F7        1.0  0.391323772133514  0.8751220645054681  0.35990620672551943  1.0000
  F   F8        1.0  0.6086762275937706  0.12487793514073486  0.6400937932416711  1.0000
  F   F9        1.0  0.03189539748938165  0.7766397775583394  0.9983700960157267  1.0000
  F   F10       1.0  0.9681046022379031  0.22336022208786338  0.0016299039514637112  1.0000
  F   F11       1.0  0.16249953232633643  0.5862586989720527  0.8669221999818496  1.0000
  F   F12       1.0  0.837500467075974  0.41374130159432176  0.13307779998835992  1.0000
  F   F13       1.0  0.5268363065472234  0.5345173654811491  0.8986941256242491  1.0000
  F   F14       1.0  0.4731636945464435  0.4654826341635101  0.10130587434194899  1.0000
  F   F15       1.0  0.4002678123696291  0.7167042481233764  0.036551808593470216  1.0000
  F   F16       1.0  0.5997321883990636  0.2832957524414545  0.963448191375747  1.0000
  Br  Br1       1.0  0.4050260355350348  0.15003137284247  0.3584350687179702  1.0000
  Br  Br2       1.0  0.59497396419225  0.8499686268037328  0.6415649312492202  1.0000
  Br  Br3       1.0  0.9361596848814444  0.4088155795923985  0.8006523529350166  1.0000
  Br  Br4       1.0  0.0638403148458404  0.5911844200538043  0.1993476470321739  1.0000
