data_image0
_chemical_formula_structural       H24C80N8F32I8
_chemical_formula_sum              "H24 C80 N8 F32 I8"
_cell_length_a       8.232900078091467
_cell_length_b       7.007369721428479
_cell_length_c       34.31816672576297
_cell_angle_alpha    90.0
_cell_angle_beta     93.11747545822286
_cell_angle_gamma    90.0

_space_group_name_H-M_alt    "P 1"
_space_group_IT_number       1

loop_
  _space_group_symop_operation_xyz
  'x, y, z'

loop_
  _atom_site_type_symbol
  _atom_site_label
  _atom_site_symmetry_multiplicity
  _atom_site_fract_x
  _atom_site_fract_y
  _atom_site_fract_z
  _atom_site_occupancy
  H   H1        1.0  0.3656060700565812  0.4099098754866972  0.6594714678144885  1.0000
  H   H2        1.0  0.6343939301373768  0.9099098753847703  0.8405285323465935  1.0000
  H   H3        1.0  0.6343939307318474  0.590090125736518  0.34052853227243135  1.0000
  H   H4        1.0  0.36560606943635315  0.09009012441137587  0.1594714677400602  1.0000
  H   H5        1.0  0.4958596533400239  0.4200706523302923  0.7274267232498194  1.0000
  H   H6        1.0  0.504140346853934  0.9200706522283654  0.7725732769112625  1.0000
  H   H7        1.0  0.504140346233706  0.5799293474658539  0.2725732768368343  1.0000
  H   H8        1.0  0.4958596539344946  0.07992934756778076  0.2274267231756573  1.0000
  H   H9        1.0  0.7760567073055232  0.995650841522564  0.7359835281849474  1.0000
  H   H10       1.0  0.2239432928233886  0.49565084162449086  0.7640164716843122  1.0000
  H   H11       1.0  0.22394329220316053  0.00434915827358219  0.2640164716098839  1.0000
  H   H12       1.0  0.7760567067503414  0.5043491581716553  0.23598352840234152  1.0000
  H   H13       1.0  0.8103167384863187  0.2645808589677286  0.6898479777876761  1.0000
  H   H14       1.0  0.1896832604278945  0.7645808588658017  0.8101520220813172  1.0000
  H   H15       1.0  0.18968326108741126  0.7354191408284176  0.31015202229897765  1.0000
  H   H16       1.0  0.8103167390807893  0.23541914093034452  0.18984797771351397  1.0000
  H   H17       1.0  0.6815464872397359  0.2518984355288404  0.6224087316690545  1.0000
  H   H18       1.0  0.31845351295422214  0.7518984354269135  0.8775912684920275  1.0000
  H   H19       1.0  0.3184535123339941  0.7481015642673057  0.3775912684175992  1.0000
  H   H20       1.0  0.6815464878342065  0.2481015643692327  0.1224087315948924  1.0000
  H   H21       1.0  0.5153617450380773  0.97241874781668  0.6006395573687996  1.0000
  H   H22       1.0  0.4846382550908344  0.47241874791860705  0.8993604425004599  1.0000
  H   H23       1.0  0.48463825447060643  0.027581251979466093  0.3993604424260315  1.0000
  H   H24       1.0  0.5153617444828955  0.5275812533046081  0.10063955758619388  1.0000
  C   C1        1.0  0.2830037340587535  0.44762736015027527  0.5128991735970654  1.0000
  C   C2        1.0  0.7169962660701583  0.9476273600483484  0.9871008262721942  1.0000
  C   C3        1.0  0.7169962655149764  0.5523726396458709  0.4871008264895884  1.0000
  C   C4        1.0  0.28300373465322415  0.05237263974779781  0.012899173522903195  1.0000
  C   C5        1.0  0.18708675705370456  0.5641079787629906  0.4880328508667877  1.0000
  C   C6        1.0  0.812913243114496  0.06410797886491754  0.011967149145703807  1.0000
  C   C7        1.0  0.812913243734724  0.43589202103315555  0.5119671492201322  1.0000
  C   C8        1.0  0.18708675645923403  0.9358920209312287  0.9880328509409502  1.0000
  C   C9        1.0  0.12149141394825863  0.49639131347145693  0.45246266166077037  1.0000
  C   C10       1.0  0.8785085862199419  0.99639131336953  0.04753733835172124  1.0000
  C   C11       1.0  0.87850858684017  0.5036086863246892  0.5475373384261496  1.0000
  C   C12       1.0  0.12149141328874184  0.003608686426616158  0.9524626614431098  1.0000
  C   C13       1.0  0.1451662112100417  0.30773188453376077  0.4407473585278805  1.0000
  C   C14       1.0  0.8548337889581589  0.8077318844318339  0.059252641484611145  1.0000
  C   C15       1.0  0.854833789578387  0.6922681152623854  0.5592526415590395  1.0000
  C   C16       1.0  0.14516621061557108  0.19226811536431235  0.9407473586020427  1.0000
  C   C17       1.0  0.24457101527810546  0.19301256159840324  0.4655204155332795  1.0000
  C   C18       1.0  0.7554289848900951  0.6930125614964763  0.03447958447921207  1.0000
  C   C19       1.0  0.755428985445277  0.8069874381977429  0.5344795842618179  1.0000
  C   C20       1.0  0.24457101468363487  0.30698743829966985  0.9655204156074418  1.0000
  C   C21       1.0  0.31143636093899046  0.26081573581184325  0.5010268200054286  1.0000
  C   C22       1.0  0.6885636392549674  0.7608157357099165  0.9989731801556532  1.0000
  C   C23       1.0  0.688563639849438  0.7391842639843029  0.4989731800814912  1.0000
  C   C24       1.0  0.31143636031876254  0.2391842640862298  0.0010268199310004078  1.0000
  C   C25       1.0  0.8947176205554  0.0725785894306035  0.3377115216698912  1.0000
  C   C26       1.0  0.1052823796128005  0.5725785893286766  0.16228847834260035  1.0000
  C   C27       1.0  0.10528238023302855  0.9274214103655426  0.6622884784170288  1.0000
  C   C28       1.0  0.8947176198958833  0.42742141046746956  0.8377115214522308  1.0000
  C   C29       1.0  0.8828069540252391  0.9894128375727612  0.37432463033696906  1.0000
  C   C30       1.0  0.11719304614296142  0.489412837674688  0.1256753696755225  1.0000
  C   C31       1.0  0.11719304669814327  0.010587162223385077  0.6256753694581282  1.0000
  C   C32       1.0  0.8828069534307685  0.5105871621214582  0.8743246304111313  1.0000
  C   C33       1.0  0.9616436188309607  0.06744539374806324  0.407545983307879  1.0000
  C   C34       1.0  0.03835638133723984  0.5674453936461363  0.09245401670461256  1.0000
  C   C35       1.0  0.03835638189242169  0.9325546060480829  0.5924540164872182  1.0000
  C   C36       1.0  0.9616436182364901  0.43255460615000985  0.9075459833820412  1.0000
  C   C37       1.0  0.06055644306921544  0.22949436149805041  0.40533613974948274  1.0000
  C   C38       1.0  0.9394435570989851  0.7294943613961234  0.09466386026300881  1.0000
  C   C39       1.0  0.9394435564394683  0.7705056382980958  0.5946638600453483  1.0000
  C   C40       1.0  0.060556442474744815  0.27050563840002273  0.9053361398236449  1.0000
  C   C41       1.0  0.06952693619915236  0.3132080705387112  0.3685190217977495  1.0000
  C   C42       1.0  0.9304730639690483  0.8132080704367842  0.13148097821474214  1.0000
  C   C43       1.0  0.9304730645892763  0.6867919292574349  0.6314809782891705  1.0000
  C   C44       1.0  0.06952693560468173  0.18679192935936192  0.8685190218719115  1.0000
  C   C45       1.0  0.986696917595413  0.23869748657403875  0.33552087656772833  1.0000
  C   C46       1.0  0.013303082572787587  0.7386974864721118  0.1644791234447633  1.0000
  C   C47       1.0  0.013303081978316977  0.7613025146491764  0.6644791235189255  1.0000
  C   C48       1.0  0.986696918215641  0.26130251332403437  0.8355208766421567  1.0000
  C   C49       1.0  0.4387357991132869  0.5328767352721895  0.6691483337538335  1.0000
  C   C50       1.0  0.5612642010156248  0.032876735374116416  0.8308516661154259  1.0000
  C   C51       1.0  0.5612642016100954  0.46712326452395664  0.3308516660412638  1.0000
  C   C52       1.0  0.4387357985581051  0.9671232644220297  0.16914833397122778  1.0000
  C   C53       1.0  0.5118458195712778  0.5389626122410597  0.7073820073537829  1.0000
  C   C54       1.0  0.48815417940798145  0.038962612342986626  0.7926179928070329  1.0000
  C   C55       1.0  0.48815418000245203  0.4610373875550865  0.2926179927328708  1.0000
  C   C56       1.0  0.5118458201657485  0.9610373874531596  0.20738200727962078  1.0000
  C   C57       1.0  0.6240939183669287  0.8317702264483675  0.6947521934332642  1.0000
  C   C58       1.0  0.3759060805472844  0.3317702265502944  0.8052478064357291  1.0000
  C   C59       1.0  0.3759060812068012  0.16822977334777867  0.3052478066533895  1.0000
  C   C60       1.0  0.6240939189613993  0.6682297732458518  0.19475219335910202  1.0000
  C   C61       1.0  0.7181633857296345  0.992682605104783  0.7066278284875118  1.0000
  C   C62       1.0  0.2818366131845787  0.4926826052067099  0.7933721713814815  1.0000
  C   C63       1.0  0.28183661377904934  0.007317394691363203  0.2933721713073193  1.0000
  C   C64       1.0  0.7181633863241051  0.5073173945894363  0.20662782841334967  1.0000
  C   C65       1.0  0.7371304011132109  0.1410813371209516  0.6807949856793175  1.0000
  C   C66       1.0  0.2628695990157009  0.6410813370190247  0.819205014189942  1.0000
  C   C67       1.0  0.26286959967521767  0.8589186626751946  0.31920501440760235  1.0000
  C   C68       1.0  0.7371304004929828  0.35891866277712153  0.18079498560488924  1.0000
  C   C69       1.0  0.6642387540386495  0.1340880654729401  0.6424461376551744  1.0000
  C   C70       1.0  0.3357612461553084  0.6340880653710131  0.8575538625059077  1.0000
  C   C71       1.0  0.33576124674977903  0.865911935750275  0.35755386243174553  1.0000
  C   C72       1.0  0.6642387534184215  0.36591193442513303  0.1424461375807461  1.0000
  C   C73       1.0  0.5720585446058424  0.9791680520321223  0.6300574275681249  1.0000
  C   C74       1.0  0.42794145552306945  0.47916805213404934  0.8699425723011345  1.0000
  C   C75       1.0  0.4279414561175401  0.02083194776402379  0.3699425722269724  1.0000
  C   C76       1.0  0.5720585440506605  0.5208319476620968  0.1300574277855192  1.0000
  C   C77       1.0  0.5499336679970273  0.8252997058675358  0.6559045394321219  1.0000
  C   C78       1.0  0.4500663321969306  0.3252997059694627  0.8440954607289601  1.0000
  C   C79       1.0  0.4500663315767026  0.1747002939286104  0.3440954606545318  1.0000
  C   C80       1.0  0.5499336673767994  0.6747002938266835  0.15590453935769363  1.0000
  N   N1        1.0  0.45944940418562225  0.6713098462058953  0.6438056938073949  1.0000
  N   N2        1.0  0.5405505959432896  0.17130984488075326  0.8561943060618646  1.0000
  N   N3        1.0  0.5405505965377603  0.32869015501731985  0.35619430598770246  1.0000
  N   N4        1.0  0.45944940363044035  0.8286901549153929  0.1438056940247891  1.0000
  N   N5        1.0  0.6042724637448952  0.6832842051074112  0.7198015344592127  1.0000
  N   N6        1.0  0.39572753644906283  0.18328420520933814  0.7801984657018695  1.0000
  N   N7        1.0  0.39572753582883474  0.31671579468873495  0.2801984656274411  1.0000
  N   N8        1.0  0.6042724643393658  0.816715794586808  0.21980153438505048  1.0000
  F   F1        1.0  0.15103922111005347  0.7433413773032875  0.49898422140227  1.0000
  F   F2        1.0  0.848960779058147  0.24334137740521444  0.001015778610221616  1.0000
  F   F3        1.0  0.8489607796783751  0.25665862249285865  0.5010157786846499  1.0000
  F   F4        1.0  0.15103922051558288  0.7566586223909317  0.9989842214764322  1.0000
  F   F5        1.0  0.026331351196039392  0.6132348057587587  0.4296921564514209  1.0000
  F   F6        1.0  0.9736686489071149  0.11323480586068554  0.0703078432692481  1.0000
  F   F7        1.0  0.9736686495273431  0.38676519403738757  0.5703078433436765  1.0000
  F   F8        1.0  0.026331350601568763  0.8867651939354607  0.929692156525583  1.0000
  F   F9        1.0  0.27954891068236676  0.013658423032442652  0.45423995341118495  1.0000
  F   F10       1.0  0.7204510894858338  0.5136584229305158  0.04576004660130668  1.0000
  F   F11       1.0  0.7204510900410156  0.9863415781907725  0.5457600463839125  1.0000
  F   F12       1.0  0.2795489100878962  0.4863415768656304  0.9542399534853471  1.0000
  F   F13       1.0  0.4054083920664149  0.14320358849217915  0.5237981635489353  1.0000
  F   F14       1.0  0.5945916080624968  0.6432035883902523  0.9762018363203241  1.0000
  F   F15       1.0  0.5945916074422688  0.8567964113039671  0.47620183624589585  1.0000
  F   F16       1.0  0.4054083927259317  0.35679641140589397  0.023798163766595725  1.0000
  F   F17       1.0  0.7917028675599315  0.8305335584339055  0.3782660954947881  1.0000
  F   F18       1.0  0.20829713139357037  0.3305335585358324  0.12173390451743726  1.0000
  F   F19       1.0  0.20829713194875218  0.16946644136224065  0.6217339043000429  1.0000
  F   F20       1.0  0.7917028681801596  0.6694664412603137  0.8782660955692165  1.0000
  F   F21       1.0  0.9388572064795627  0.9873065950614139  0.4424460886696953  1.0000
  F   F22       1.0  0.0611427936886378  0.4873065951633408  0.05755391134279629  1.0000
  F   F23       1.0  0.06114279302912101  0.0126934047347323  0.5575539111251359  1.0000
  F   F24       1.0  0.938857205885092  0.5126934046328053  0.9424460887438575  1.0000
  F   F25       1.0  0.16455983947435093  0.46911908329133706  0.3642047301031395  1.0000
  F   F26       1.0  0.8354401606938496  0.9691190831894101  0.13579526990935212  1.0000
  F   F27       1.0  0.835440160099379  0.5308809179318781  0.6357952699835142  1.0000
  F   F28       1.0  0.16455984009457894  0.030880916606736038  0.8642047301775678  1.0000
  F   F29       1.0  8.312351772303187e-05  0.3291411858784909  0.30084432980385845  1.0000
  F   F30       1.0  0.9999168754357789  0.829141185776564  0.19915567020836694  1.0000
  F   F31       1.0  0.9999168760560069  0.6708588153447244  0.6991556702827952  1.0000
  F   F32       1.0  8.312413795106435e-05  0.17085881544665119  0.8008443298782868  1.0000
  I   I1        1.0  0.3717976710041076  0.5541486797999878  0.5672856158574917  1.0000
  I   I2        1.0  0.6282023291248041  0.054148679901914715  0.9327143840117678  1.0000
  I   I3        1.0  0.6282023285045761  0.44585131999615835  0.4327143839373394  1.0000
  I   I4        1.0  0.37179767159857824  0.9458513198942314  0.0672856157833296  1.0000
  I   I5        1.0  0.7816616940572727  0.945890674175647  0.2875868332629282  1.0000
  I   I6        1.0  0.21833830611092786  0.44589067427757395  0.21241316674956343  1.0000
  I   I7        1.0  0.2183383066661097  0.054109325620499145  0.7124131665321691  1.0000
  I   I8        1.0  0.781661693462802  0.5541093269456412  0.7875868333370903  1.0000
