data_image0
_chemical_formula_structural       H16C48N4F16Br4
_chemical_formula_sum              "H16 C48 N4 F16 Br4"
_cell_length_a       7.628190529031973
_cell_length_b       12.139994107154651
_cell_length_c       12.79301552229773
_cell_angle_alpha    110.7132641195418
_cell_angle_beta     101.24447894572249
_cell_angle_gamma    95.24527543172627

_space_group_name_H-M_alt    "P 1"
_space_group_IT_number       1

loop_
  _space_group_symop_operation_xyz
  'x, y, z'

loop_
  _atom_site_type_symbol
  _atom_site_label
  _atom_site_symmetry_multiplicity
  _atom_site_fract_x
  _atom_site_fract_y
  _atom_site_fract_z
  _atom_site_occupancy
  H   H1        1.0  0.3885646452037958  0.1658241108602591  0.2527840579460499  1.0000
  H   H2        1.0  0.6114353537722851  0.8341758889562556  0.747215941392517  1.0000
  H   H3        1.0  0.09889523396632867  0.04578565337334372  0.242332221578877  1.0000
  H   H4        1.0  0.9011047663222935  0.9542143464452896  0.757667777763729  1.0000
  H   H5        1.0  0.8832660069137562  0.21707063525203943  0.08549632014368902  1.0000
  H   H6        1.0  0.11673399238778982  0.7829293649067848  0.9145036800566194  1.0000
  H   H7        1.0  0.03298151114429758  0.14531449301779  0.9237918533690055  1.0000
  H   H8        1.0  0.9670184881572483  0.8546855071410343  0.07620814683130299  1.0000
  H   H9        1.0  0.05187969200850301  0.7844802908271882  0.2500719984167114  1.0000
  H   H10       1.0  0.948120307293043  0.21551970933163617  0.7499280017835971  1.0000
  H   H11       1.0  0.35493843462217356  0.737909504287685  0.3110724188453095  1.0000
  H   H12       1.0  0.6450615643539074  0.2620904955288296  0.6889275804932575  1.0000
  H   H13       1.0  0.5358207991594625  0.8387745918257311  0.5142599852489113  1.0000
  H   H14       1.0  0.4641791996979247  0.16122540716446068  0.4857400140918385  1.0000
  H   H15       1.0  0.41932109156626435  0.9926535798574844  0.6574570352374198  1.0000
  H   H16       1.0  0.5806789090478229  0.007346420303458568  0.34254296496692754  1.0000
  C   C1        1.0  0.9406036741597947  0.3247930696131749  0.46406866106520184  1.0000
  C   C2        1.0  0.059396326454292395  0.6752069305477679  0.5359313391391455  1.0000
  C   C3        1.0  0.11620764246145178  0.3042524327031992  0.4951752334082376  1.0000
  C   C4        1.0  0.8837923568400942  0.6957475674556252  0.5048247667920709  1.0000
  C   C5        1.0  0.22498596406510737  0.3662838911002369  0.6056766554709052  1.0000
  C   C6        1.0  0.7750140365489797  0.633716109060706  0.3943233447334421  1.0000
  C   C7        1.0  0.16404740587690414  0.45173684753829985  0.690356667611505  1.0000
  C   C8        1.0  0.8359525947371831  0.548263152622643  0.3096433325928424  1.0000
  C   C9        1.0  0.9855940929050532  0.4699945157111769  0.658952041983556  1.0000
  C   C10       1.0  0.014405906396492744  0.5300054844476473  0.34104795821675243  1.0000
  C   C11       1.0  0.8759717541371362  0.40802984290701355  0.5481623372506349  1.0000
  C   C12       1.0  0.124028246476951  0.5919701572539294  0.45183766295371247  1.0000
  C   C13       1.0  0.5132539431137453  0.6736739542291462  0.02291181418662527  1.0000
  C   C14       1.0  0.4867460558623356  0.32632604558736855  0.9770881851519417  1.0000
  C   C15       1.0  0.5682464221525036  0.6585932571166041  0.9216929343543875  1.0000
  C   C16       1.0  0.4317535781361185  0.3414067427020291  0.07830706498821846  1.0000
  C   C17       1.0  0.45627980310314453  0.5859511516046138  0.8145191550595773  1.0000
  C   C18       1.0  0.5437201958729364  0.41404884821190086  0.1854808442789898  1.0000
  C   C19       1.0  0.2860017940428303  0.52325368377311  0.8041632349946363  1.0000
  C   C20       1.0  0.7139982065712568  0.4767463163878329  0.19583676520971108  1.0000
  C   C21       1.0  0.2358489803245795  0.5349331100233262  0.906741151562294  1.0000
  C   C22       1.0  0.7641510202895078  0.4650668901376167  0.09325884864205343  1.0000
  C   C23       1.0  0.3460043862562448  0.609396716817832  0.014026884132185816  1.0000
  C   C24       1.0  0.6539956143578424  0.3906032833431109  0.9859731160721615  1.0000
  C   C25       1.0  0.4213745632761502  0.041983069571903196  0.09030930279855315  1.0000
  C   C26       1.0  0.578625437337937  0.9580169305890398  0.9096906974057943  1.0000
  C   C27       1.0  0.33008776721422767  0.08145587699173099  0.18062891758326427  1.0000
  C   C28       1.0  0.6699122333998595  0.9185441231692119  0.8193710826210832  1.0000
  C   C29       1.0  0.17020216090577056  0.014674585083449244  0.17426210248959562  1.0000
  C   C30       1.0  0.8297978397083167  0.9853254150774937  0.8257378977147518  1.0000
  C   C31       1.0  0.6584059538299588  0.06793841300948315  0.008188541472930431  1.0000
  C   C32       1.0  0.34159404645866326  0.93206158680915  0.9918114578696755  1.0000
  C   C33       1.0  0.8239687635734971  0.13481031793739934  0.010866800289129482  1.0000
  C   C34       1.0  0.17603123692189626  0.8651896813972206  0.9891331999174006  1.0000
  C   C35       1.0  0.906179477127752  0.09438600905030309  0.9213716394266526  1.0000
  C   C36       1.0  0.09382052348633514  0.90561399111064  0.07862836077769476  1.0000
  C   C37       1.0  0.8323522087956063  0.022993360546225944  0.4635384237750464  1.0000
  C   C38       1.0  0.16764779149301592  0.9770066392724073  0.5364615755675596  1.0000
  C   C39       1.0  0.060295230183877814  0.9160785840878365  0.4186123925018113  1.0000
  C   C40       1.0  0.9397047687922031  0.08392141572867821  0.5813876068367557  1.0000
  C   C41       1.0  0.13278483200304902  0.829686600930588  0.33835483683065126  1.0000
  C   C42       1.0  0.867215168611038  0.17031339923035485  0.661645163373696  1.0000
  C   C43       1.0  0.3005624423107576  0.803863247271721  0.3730536787600638  1.0000
  C   C44       1.0  0.6994375581846358  0.196136752062899  0.6269463214464663  1.0000
  C   C45       1.0  0.4042655373130907  0.8621179430672262  0.48896016213002425  1.0000
  C   C46       1.0  0.5957344615442967  0.13788205592296537  0.5110398372107255  1.0000
  C   C47       1.0  0.34048776212631987  0.946981680583234  0.5686597893112184  1.0000
  C   C48       1.0  0.659512237175226  0.05301831957559013  0.43134021088909  1.0000
  N   N1        1.0  0.5781500511480804  0.10710976309422296  0.09615177260023496  1.0000
  N   N2        1.0  0.4218499481534656  0.8928902370646015  0.9038482276000736  1.0000
  N   N3        1.0  0.8948048798916296  0.9401713712142642  0.3847903657331412  1.0000
  N   N4        1.0  0.10519511908445145  0.0598286286022505  0.6152096336054259  1.0000
  F   F1        1.0  0.18404568451218886  0.2226102252473564  0.41753033862101346  1.0000
  F   F2        1.0  0.8159543161018983  0.7773897749135865  0.5824696615833338  1.0000
  F   F3        1.0  0.39365971426564683  0.3420179348473024  0.6309860946624919  1.0000
  F   F4        1.0  0.606340285035899  0.6579820653115218  0.36901390553781654  1.0000
  F   F5        1.0  0.9184012822324912  0.5524193005821166  0.7357696040638247  1.0000
  F   F6        1.0  0.08159871706905476  0.4475806995767077  0.2642303961364837  1.0000
  F   F7        1.0  0.7067169849288066  0.4311077084869799  0.5221436389747303  1.0000
  F   F8        1.0  0.29328301437273924  0.5688922916718444  0.4778563612255782  1.0000
  F   F9        1.0  0.7301192322369866  0.7174706201027183  0.9259568874128973  1.0000
  F   F10       1.0  0.2698807680516354  0.2825293797159148  0.07404311192970853  1.0000
  F   F11       1.0  0.5126988090830465  0.5807316970583303  0.7196914957885189  1.0000
  F   F12       1.0  0.48730119021849944  0.419268303100494  0.2803085044117896  1.0000
  F   F13       1.0  0.07788589650044243  0.47132638969207463  0.9021452504206322  1.0000
  F   F14       1.0  0.9221141026824098  0.5286736096404266  0.09785474978185896  1.0000
  F   F15       1.0  0.289137172212525  0.6183402586313869  0.10990160261851685  1.0000
  F   F16       1.0  0.7108628284015621  0.381659741529556  0.8900983975858305  1.0000
  Br  Br1       1.0  0.7963225284661691  0.24241162185289722  0.31224187894487737  1.0000
  Br  Br2       1.0  0.20367747214791818  0.7575883783080457  0.68775812125947  1.0000
  Br  Br3       1.0  0.6595629310852348  0.7823501417108871  0.16694700001575957  1.0000
  Br  Br4       1.0  0.3404370682163112  0.21764985844793708  0.8330530001845489  1.0000
