data_image0
_chemical_formula_structural       H60C16N32O32S6
_chemical_formula_sum              "H60 C16 N32 O32 S6"
_cell_length_a       6.664479605854723
_cell_length_b       13.26450780942571
_cell_length_c       15.841135528824383
_cell_angle_alpha    95.81429505653729
_cell_angle_beta     101.76904794681343
_cell_angle_gamma    99.74000221869551

_space_group_name_H-M_alt    "P 1"
_space_group_IT_number       1

loop_
  _space_group_symop_operation_xyz
  'x, y, z'

loop_
  _atom_site_type_symbol
  _atom_site_label
  _atom_site_symmetry_multiplicity
  _atom_site_fract_x
  _atom_site_fract_y
  _atom_site_fract_z
  _atom_site_occupancy
  H   H1        1.0  0.29987496729424945  0.5953898325542727  0.4051002416628416  1.0000
  H   H2        1.0  0.7001250337420996  0.40461016762527413  0.5948997581963043  1.0000
  H   H3        1.0  0.7003884119428438  0.6774063369883261  0.595232933904242  1.0000
  H   H4        1.0  0.2996115875634027  0.3225936631976776  0.40476706582167316  1.0000
  H   H5        1.0  0.5366492307464061  0.7308014301562255  0.6570184780895822  1.0000
  H   H6        1.0  0.46335076844244955  0.26919856925719643  0.34298152154289663  1.0000
  H   H7        1.0  0.07904036978000602  0.6469554261627705  0.4877858764759546  1.0000
  H   H8        1.0  0.920959631256343  0.3530445740167762  0.5122141233831912  1.0000
  H   H9        1.0  0.1847424339793534  0.7183135053030367  0.5883392293795175  1.0000
  H   H10       1.0  0.8152575655268932  0.28168649488296715  0.41166077034639764  1.0000
  H   H11       1.0  0.744962846135141  0.5361787897405575  0.34606997287806285  1.0000
  H   H12       1.0  0.25503715305371477  0.4638212096728644  0.6539300267544161  1.0000
  H   H13       1.0  0.4700789049563981  0.5134334304813453  0.32174257034569337  1.0000
  H   H14       1.0  0.5299210945435041  0.48656656970386986  0.678257430010873  1.0000
  H   H15       1.0  0.5488127307979832  0.8564985445163618  0.441836010990618  1.0000
  H   H16       1.0  0.4511872687019189  0.14350145566885336  0.5581639893659485  1.0000
  H   H17       1.0  0.9660812775597681  0.9364192577160709  0.6285464505967291  1.0000
  H   H18       1.0  0.03391872162908761  0.06358074169735103  0.37145354903574984  1.0000
  H   H19       1.0  0.8020133234150626  0.9848160516461185  0.6926746104883498  1.0000
  H   H20       1.0  0.19798667729755104  0.015183947760057917  0.30732538990801106  1.0000
  H   H21       1.0  0.33774642800270227  0.9017097581249212  0.5291100815907036  1.0000
  H   H22       1.0  0.6622535715035444  0.09829024206108261  0.4708899181352116  1.0000
  H   H23       1.0  0.44351932274158806  0.9510631746353757  0.6365064890307507  1.0000
  H   H24       1.0  0.5564806764472677  0.048936824778046194  0.3634935106017284  1.0000
  H   H25       1.0  0.9992995965693188  0.8222518087264685  0.37034313817218395  1.0000
  H   H26       1.0  0.0007004029369279316  0.17774819145953533  0.6296568615537312  1.0000
  H   H27       1.0  0.7230596616789869  0.8075719203710595  0.3403796747104476  1.0000
  H   H28       1.0  0.2769403390399711  0.19242807903590528  0.6596203250552619  1.0000
  H   H29       1.0  0.24363097087188365  0.5752903249729737  0.9087767812142141  1.0000
  H   H30       1.0  0.7563690301644653  0.424709675206573  0.0912232186449317  1.0000
  H   H31       1.0  0.6614166794265661  0.647709722824183  0.09047093653326037  1.0000
  H   H32       1.0  0.3385833200796805  0.35229027736182067  0.9095290631926547  1.0000
  H   H33       1.0  0.5077754283207037  0.6858111050947391  0.1640710550457935  1.0000
  H   H34       1.0  0.492224571185543  0.3141888950912648  0.8359289446801216  1.0000
  H   H35       1.0  0.034859454768080236  0.6227864936041646  0.0003830062258656058  1.0000
  H   H36       1.0  0.9651405462682688  0.37721350657538216  0.9996169936332803  1.0000
  H   H37       1.0  0.13569110760776507  0.6328426114204928  0.11080898089468583  1.0000
  H   H38       1.0  0.8643088918984817  0.36715738876551096  0.8891910188312294  1.0000
  H   H39       1.0  0.6768559191103656  0.6031661022354219  0.8177240563796503  1.0000
  H   H40       1.0  0.32314408007849016  0.39683389717799994  0.1822759432528286  1.0000
  H   H41       1.0  0.40833728069456254  0.6015288420379349  0.8029030141987559  1.0000
  H   H42       1.0  0.5916627188053396  0.39847115814728024  0.19709698615781057  1.0000
  H   H43       1.0  0.5464774076492526  0.8598048252767718  0.9339579085290803  1.0000
  H   H44       1.0  0.45352259185699395  0.1401951749092318  0.06604209119683488  1.0000
  H   H45       1.0  0.9491454361599325  0.9029270252533443  0.12478980786578117  1.0000
  H   H46       1.0  0.050854563346314025  0.0970729749326594  0.875210191860134  1.0000
  H   H47       1.0  0.7841579991787624  0.9408484387037797  0.1931241075971391  1.0000
  H   H48       1.0  0.21584200032748418  0.05915156148222415  0.806875892128776  1.0000
  H   H49       1.0  0.3255447457177531  0.8879888471591254  0.0253887807766359  1.0000
  H   H50       1.0  0.6744552553122514  0.11201115301963271  0.9746112197131612  1.0000
  H   H51       1.0  0.4259501455672591  0.9109194303196357  0.13575435529789723  1.0000
  H   H52       1.0  0.5740498539389876  0.08908056986636799  0.864245644428018  1.0000
  H   H53       1.0  0.008344532508604617  0.8457895560495554  0.8628883518782354  1.0000
  H   H54       1.0  0.9916554685214  0.15421044412920273  0.13711164861156167  1.0000
  H   H55       1.0  0.7332019729207891  0.8357351895958488  0.8309231239175631  1.0000
  H   H56       1.0  0.2667980265854575  0.1642648105901549  0.16907687580835215  1.0000
  H   H57       1.0  0.8721492377044838  0.30364879337221723  0.2836457648036818  1.0000
  H   H58       1.0  0.12785076180176275  0.6963512068137867  0.7163542349222334  1.0000
  H   H59       1.0  0.07397432497033712  0.6688456635432841  0.2650540339640843  1.0000
  H   H60       1.0  0.9260256742185187  0.33115433587013776  0.7349459656683947  1.0000
  C   C1        1.0  0.40050222294524634  0.6619308146852158  0.5324400239601053  1.0000
  C   C2        1.0  0.5994977762436093  0.3380691847282059  0.46755997567237373  1.0000
  C   C3        1.0  0.621889421031257  0.5975903248765384  0.44087719352743343  1.0000
  C   C4        1.0  0.3781105800050919  0.40240967530300825  0.5591228063317123  1.0000
  C   C5        1.0  0.6605925119076244  0.9164087072156561  0.5699408013116066  1.0000
  C   C6        1.0  0.3394074875986222  0.08359129297034759  0.4300591984143085  1.0000
  C   C7        1.0  0.8745424836010585  0.8658930169769304  0.4695540801906808  1.0000
  C   C8        1.0  0.12545751743529057  0.13410698320261638  0.530445919668465  1.0000
  C   C9        1.0  0.3553296519275607  0.6295012259426478  0.03872019278543557  1.0000
  C   C10       1.0  0.6446703475723413  0.3704987742425673  0.961279807571131  1.0000
  C   C11       1.0  0.5706213063118941  0.6138671036019046  0.9305656218132122  1.0000
  C   C12       1.0  0.42937869319435235  0.38613289658409916  0.0694343779127029  1.0000
  C   C13       1.0  0.6471058651075134  0.8931283198697815  0.06617815848689533  1.0000
  C   C14       1.0  0.3528941356051002  0.10687167953639473  0.9338218419094656  1.0000
  C   C15       1.0  0.8724215188309273  0.8673045756127861  0.9635856882187444  1.0000
  C   C16       1.0  0.1275784806753193  0.13269542457321765  0.036414311507170845  1.0000
  N   N1        1.0  0.5577945176830589  0.6918174786253861  0.6012276292412846  1.0000
  N   N2        1.0  0.4422054818231876  0.30818252156061754  0.39877237048463055  1.0000
  N   N3        1.0  0.21123962584655798  0.6801829417980342  0.5337569001919605  1.0000
  N   N4        1.0  0.7887603751897909  0.3198170583815125  0.4662430996671853  1.0000
  N   N5        1.0  0.42851690508863927  0.6123079082892431  0.4568779332477363  1.0000
  N   N6        1.0  0.5714830959413653  0.38769209188951503  0.5431220672420608  1.0000
  N   N7        1.0  0.6105310685049814  0.5525237901837274  0.3599968279430997  1.0000
  N   N8        1.0  0.3894689306838744  0.44747620922969444  0.6400031716893791  1.0000
  N   N9        1.0  0.8214640359460523  0.9437871598803437  0.6376939405870251  1.0000
  N   N10       1.0  0.17853596356019416  0.05621284030565994  0.3623060591388901  1.0000
  N   N11       1.0  0.470352953581071  0.9286437104430988  0.5768618201546828  1.0000
  N   N12       1.0  0.5296470456077846  0.07135628897032299  0.4231381794777961  1.0000
  N   N13       1.0  0.6834180556165786  0.8744005370811928  0.49081922402415584  1.0000
  N   N14       1.0  0.3165819438896679  0.125599463104811  0.5091807757017593  1.0000
  N   N15       1.0  0.8609208223252467  0.8293955703817885  0.3861259475842139  1.0000
  N   N16       1.0  0.1390791771746554  0.17060442980342663  0.6138740527723525  1.0000
  N   N17       1.0  0.5198004819492893  0.6486874270924795  0.10581480559610754  1.0000
  N   N18       1.0  0.48019951755695733  0.3513125730935242  0.8941851941298076  1.0000
  N   N19       1.0  0.16415018848994814  0.6315476706863232  0.050078833314981926  1.0000
  N   N20       1.0  0.8358498110162985  0.36845232949968054  0.9499211664109333  1.0000
  N   N21       1.0  0.3788432509304105  0.6071788081391392  0.9557788003964403  1.0000
  N   N22       1.0  0.621156750099594  0.39282119203961907  0.044221200093356866  1.0000
  N   N23       1.0  0.5502977220718841  0.6059383262321624  0.8444904979523997  1.0000
  N   N24       1.0  0.4497022774343625  0.3940616739538413  0.15550950177351533  1.0000
  N   N25       1.0  0.8038093430343919  0.9062708890122153  0.13552030771731788  1.0000
  N   N26       1.0  0.19619065646551032  0.09372911117299988  0.8644796926392487  1.0000
  N   N27       1.0  0.45632610215758845  0.9018971721430994  0.07499734181928494  1.0000
  N   N28       1.0  0.5436738970312672  0.09810282727032235  0.925002657813194  1.0000
  N   N29       1.0  0.6768596725314555  0.8690375107032525  0.9840944311295171  1.0000
  N   N30       1.0  0.3231403269747911  0.13096248948275124  0.015905568596398086  1.0000
  N   N31       1.0  0.8675568697404691  0.8477625642937127  0.8786511535235091  1.0000
  N   N32       1.0  0.1324431297657774  0.152237435892291  0.12134884620240595  1.0000
  O   O1        1.0  0.7883173240977713  0.6262253918022699  0.4974119344072185  1.0000
  O   O2        1.0  0.21168267540847535  0.373774608383734  0.5025880653186967  1.0000
  O   O3        1.0  0.043178723970861976  0.8906900266879823  0.5250503438025207  1.0000
  O   O4        1.0  0.9568212755290403  0.10930997349723288  0.4749496565540458  1.0000
  O   O5        1.0  0.7409335460523596  0.626147756652027  0.9848693152593697  1.0000
  O   O6        1.0  0.2590664534475425  0.373852243533188  0.015130685097196653  1.0000
  O   O7        1.0  0.036614755237525914  0.8828431807416266  0.02157036559316203  1.0000
  O   O8        1.0  0.9633852442623763  0.11715681944358848  0.9784296347634045  1.0000
  O   O9        1.0  0.7078221003166191  0.14949067984495518  0.14724541344286676  1.0000
  O   O10       1.0  0.2921779007133855  0.850509320333803  0.8527545870469303  1.0000
  O   O11       1.0  0.8844231506016331  0.22840572973708906  0.29739826586880147  1.0000
  O   O12       1.0  0.11557684889826908  0.7715942704481261  0.7026017344877651  1.0000
  O   O13       1.0  0.7197737354592267  0.049024110443091996  0.27002429390911525  1.0000
  O   O14       1.0  0.2802262655771222  0.9509758897364547  0.7299757059500305  1.0000
  O   O15       1.0  0.5021208158345813  0.18033808736447068  0.254342393554334  1.0000
  O   O16       1.0  0.4978791836716653  0.819661912821533  0.7456576061715812  1.0000
  O   O17       1.0  0.08376517668388561  0.730840357499887  0.22957440915391894  1.0000
  O   O18       1.0  0.9162348228160166  0.26915964268532827  0.7704255912026475  1.0000
  O   O19       1.0  0.26221732568768064  0.9045881302407689  0.22974288454033487  1.0000
  O   O20       1.0  0.737782673818566  0.0954118699452349  0.7702571151855804  1.0000
  O   O21       1.0  0.4690838313155151  0.7701289797233277  0.2554634807904221  1.0000
  O   O22       1.0  0.5309161693970985  0.22987101968284865  0.7445365196059388  1.0000
  O   O23       1.0  0.2962148752499602  0.8299401209086139  0.366720042860971  1.0000
  O   O24       1.0  0.7037851254689981  0.17005987849835097  0.6332799569047386  1.0000
  O   O25       1.0  0.2120532325113756  0.4303404205359404  0.27747352229747163  1.0000
  O   O26       1.0  0.787946766994871  0.5696595796500633  0.7225264774284436  1.0000
  O   O27       1.0  0.8412007131093959  0.4075071707013069  0.27405027020944195  1.0000
  O   O28       1.0  0.15879928792695305  0.5924928294782399  0.725949729649704  1.0000
  O   O29       1.0  0.060350393044889324  0.5786820756851179  0.3161928564329049  1.0000
  O   O30       1.0  0.9396496064550128  0.42131792450009736  0.6838071439236616  1.0000
  O   O31       1.0  0.9796513058125822  0.49712708542124706  0.16488121137418965  1.0000
  O   O32       1.0  0.02034869522376686  0.5028729147582998  0.8351187884849561  1.0000
  S   S1        1.0  0.6933467922394997  0.14727714308393983  0.2386391872869119  1.0000
  S   S2        1.0  0.30665320726674683  0.8527228571020637  0.7613608124390032  1.0000
  S   S3        1.0  0.2894825105848477  0.8133702912857309  0.27254492363322286  1.0000
  S   S4        1.0  0.7105174885976636  0.1866297081269022  0.7274550766299074  1.0000
  S   S5        1.0  0.02650101696437649  0.47785191597413545  0.2562899808927738  1.0000
  S   S6        1.0  0.9734989825355257  0.5221480842110797  0.7437100194637927  1.0000
