data_image0
_chemical_formula_structural       H8C12N2F4I2
_chemical_formula_sum              "H8 C12 N2 F4 I2"
_cell_length_a       5.718136480131014
_cell_length_b       6.279318373497111
_cell_length_c       10.603370296745183
_cell_angle_alpha    85.12669522977552
_cell_angle_beta     74.192274105343
_cell_angle_gamma    77.40317240583232

_space_group_name_H-M_alt    "P 1"
_space_group_IT_number       1

loop_
  _space_group_symop_operation_xyz
  'x, y, z'

loop_
  _atom_site_type_symbol
  _atom_site_label
  _atom_site_symmetry_multiplicity
  _atom_site_fract_x
  _atom_site_fract_y
  _atom_site_fract_z
  _atom_site_occupancy
  H   H1        1.0  0.22516717724406385  0.8682793229308742  0.28346801826357143  1.0000
  H   H2        1.0  0.7748328221322143  0.1317206775959001  0.7165319817380272  1.0000
  H   H3        1.0  0.3371262671890891  0.24257544873438122  0.638910973973957  1.0000
  H   H4        1.0  0.662873732187189  0.7574245517923931  0.3610890260276417  1.0000
  H   H5        1.0  0.23841583018272822  0.44501681134814935  0.5279176663458084  1.0000
  H   H6        1.0  0.7615841709448025  0.5549831891769316  0.4720823336517487  1.0000
  H   H7        1.0  0.03294108547875081  0.4056977980304111  0.6847964553956509  1.0000
  H   H8        1.0  0.9670589142824731  0.594302200864251  0.3152035446138266  1.0000
  C   C1        1.0  0.9390452425400556  0.7133601224557937  0.956323047825282  1.0000
  C   C2        1.0  0.06095475897242082  0.2866398764371749  0.043676952180153994  1.0000
  C   C3        1.0  0.7650148483062618  0.6205260999602443  0.05057708317881782  1.0000
  C   C4        1.0  0.23498515107001647  0.3794739005665301  0.9494229168227807  1.0000
  C   C5        1.0  0.8225096039022006  0.40596680922985734  0.09641640807147886  1.0000
  C   C6        1.0  0.17749039547407744  0.594033191296917  0.9035835919301198  1.0000
  C   C7        1.0  0.12380170551883156  0.9267329416927272  0.3811064305481203  1.0000
  C   C8        1.0  0.8761982956086991  0.07326705883235371  0.6188935694494367  1.0000
  C   C9        1.0  0.08280877114545582  0.15721798667633735  0.5472254650350237  1.0000
  C   C10       1.0  0.9171912282308223  0.8427820138504369  0.4527745349665749  1.0000
  C   C11       1.0  0.1759606295717659  0.32308619863302235  0.6025792383550779  1.0000
  C   C12       1.0  0.8240393719407104  0.6769138002599463  0.3974207616503582  1.0000
  N   N1        1.0  0.20449879974429994  0.08097392095077678  0.4270853222321991  1.0000
  N   N2        1.0  0.795501200016924  0.9190260779438855  0.5729146777772784  1.0000
  F   F1        1.0  0.8724530857361082  0.9227876404451616  0.9159294340864804  1.0000
  F   F2        1.0  0.12754691577636815  0.07721235844780708  0.0840705659189557  1.0000
  F   F3        1.0  0.5350573269330744  0.7435555679737312  0.0974968858083967  1.0000
  F   F4        1.0  0.46494267419445623  0.2564444325513496  0.9025031141891605  1.0000
  I   I1        1.0  0.5601195042456606  0.2684148035170674  0.242769474166778  1.0000
  I   I2        1.0  0.4398804951306175  0.7315851970097068  0.7572305258348206  1.0000
