data_image0
_chemical_formula_structural       H56C48N8O18
_chemical_formula_sum              "H56 C48 N8 O18"
_cell_length_a       12.817461830073565
_cell_length_b       5.339694346902046
_cell_length_c       17.43347194206594
_cell_angle_alpha    90.0
_cell_angle_beta     107.9755217788748
_cell_angle_gamma    90.0

_space_group_name_H-M_alt    "P 1"
_space_group_IT_number       1

loop_
  _space_group_symop_operation_xyz
  'x, y, z'

loop_
  _atom_site_type_symbol
  _atom_site_label
  _atom_site_symmetry_multiplicity
  _atom_site_fract_x
  _atom_site_fract_y
  _atom_site_fract_z
  _atom_site_occupancy
  H   H1        1.0  0.4961853581730473  0.6952088956465692  0.4853654985465002  1.0000
  H   H2        1.0  0.5038146423163312  0.19520889442009878  0.5146345016414282  1.0000
  H   H3        1.0  0.3988448116737618  0.3875108284429221  0.24431077645625598  1.0000
  H   H4        1.0  0.6011551888156167  0.887510827796626  0.7556892237316725  1.0000
  H   H5        1.0  0.965232452431091  0.9884974189697429  0.5316668089474209  1.0000
  H   H6        1.0  0.03476754723807184  0.48849741961603893  0.46833319105214044  1.0000
  H   H7        1.0  0.8105929329283718  0.7274245785722786  0.631359349068012  1.0000
  H   H8        1.0  0.18940706674402644  0.2274245792185747  0.3686406503586786  1.0000
  H   H9        1.0  0.6883225735908713  0.45730449560595315  0.5253478016802338  1.0000
  H   H10       1.0  0.3116774260782916  0.9573044949596572  0.4746521983193276  1.0000
  H   H11       1.0  0.3543562002842482  0.4231040380262133  0.4373629511049696  1.0000
  H   H12       1.0  0.6456437993849148  0.9231040373799173  0.5626370488945918  1.0000
  H   H13       1.0  0.8558575738122403  0.20132140533918094  0.3378161188748142  1.0000
  H   H14       1.0  0.14414242585692263  0.7013214065656512  0.6621838811247471  1.0000
  H   H15       1.0  0.9919098116675337  0.8010912633008187  0.7188596630751047  1.0000
  H   H16       1.0  0.008090188001629146  0.3010912620743483  0.28114033692445667  1.0000
  H   H17       1.0  0.4876273569848308  0.5464108412296587  0.15847317121068233  1.0000
  H   H18       1.0  0.5123726426843321  0.046410841875954685  0.841526828788879  1.0000
  H   H19       1.0  0.7916385276769438  0.8826712193244683  0.4442687397082505  1.0000
  H   H20       1.0  0.20836147199221908  0.382671218097998  0.5557312602913108  1.0000
  H   H21       1.0  0.6108601509782734  0.15061426511549225  0.2509634343609043  1.0000
  H   H22       1.0  0.3891398495111051  0.6506142663419625  0.7490365658270242  1.0000
  H   H23       1.0  0.7213731821470749  0.9366527641983303  0.2810809469846443  1.0000
  H   H24       1.0  0.27862681834230363  0.43665276297186  0.7189190532032841  1.0000
  H   H25       1.0  0.1338077108035913  0.0919667921226444  0.6359121491532205  1.0000
  H   H26       1.0  0.8661922888655715  0.5919667914763483  0.3640878508463408  1.0000
  H   H27       1.0  0.6652125876745564  0.3604304094889994  0.3778112829007518  1.0000
  H   H28       1.0  0.33478741199460665  0.8604304107154698  0.6221887170988096  1.0000
  H   H29       1.0  0.21413270124626813  0.5572914958562118  0.2941344720678391  1.0000
  H   H30       1.0  0.7858672992431104  0.057291496502507935  0.7058655281200894  1.0000
  H   H31       1.0  0.22389332043672777  0.1317787281978498  0.16305807485558432  1.0000
  H   H32       1.0  0.7761066800526506  0.6317787294243201  0.8369419253323441  1.0000
  H   H33       1.0  0.31055050686435653  0.8660567645942138  0.19953512634612885  1.0000
  H   H34       1.0  0.689449493625022  0.36605676524050984  0.8004648738417995  1.0000
  H   H35       1.0  0.27801130846146566  0.07131790234790115  0.2693520152499171  1.0000
  H   H36       1.0  0.7219886912076972  0.5713179017016051  0.7306479847496443  1.0000
  H   H37       1.0  0.747975755406493  0.23443046524306296  0.9842793093654569  1.0000
  H   H38       1.0  0.25202424426267  0.7344304664695332  0.015720690634104414  1.0000
  H   H39       1.0  0.845605102942815  0.12617088848744154  0.9370952776371574  1.0000
  H   H40       1.0  0.15439489672634796  0.6261708878411455  0.06290472236240409  1.0000
  H   H41       1.0  0.8762298815624778  0.39559241648831955  0.0007945649486736418  1.0000
  H   H42       1.0  0.12377011810668505  0.8955924177147898  0.9992054350508878  1.0000
  H   H43       1.0  0.8427661510927752  0.3947389668891596  0.20660138546296522  1.0000
  H   H44       1.0  0.15723384857638778  0.89473896811563  0.7933986145365961  1.0000
  H   H45       1.0  0.7474508394724168  0.4175611514718225  0.10735391025530155  1.0000
  H   H46       1.0  0.25254916101696173  0.9175611508255266  0.892646089932627  1.0000
  H   H47       1.0  0.7342838588685733  0.6195581479152196  0.18483449042889685  1.0000
  H   H48       1.0  0.2657161408005896  0.11955814856151563  0.8151655095706645  1.0000
  H   H49       1.0  0.5129515741902633  0.21104329701077407  0.022358549978450933  1.0000
  H   H50       1.0  0.48704842547889965  0.711043296364478  0.9776414500211105  1.0000
  H   H51       1.0  0.4628821526758333  0.9616546465771326  0.07048594676270654  1.0000
  H   H52       1.0  0.5371178478135452  0.4616546472234285  0.929514053425222  1.0000
  H   H53       1.0  0.5738736775914477  0.14794425835597208  0.1274357741579788  1.0000
  H   H54       1.0  0.4261263228979308  0.647944257709676  0.8725642260299497  1.0000
  H   H55       1.0  0.36395733411644476  0.36105928818164373  0.0484018890607102  1.0000
  H   H56       1.0  0.636042665552718  0.8610592875353478  0.9515981109388512  1.0000
  C   C1        1.0  0.749503469762629  0.056814306267550324  0.4511987164363996  1.0000
  C   C2        1.0  0.25049653072674943  0.5568143056212542  0.5488012837515288  1.0000
  C   C3        1.0  0.5774852755669776  0.843445818694277  0.40315770035808657  1.0000
  C   C4        1.0  0.4225147249224009  0.3434458174678068  0.5968422998298418  1.0000
  C   C5        1.0  0.5018870310901611  0.6921422013872806  0.4244334031944481  1.0000
  C   C6        1.0  0.4981129685790019  0.19214220016081024  0.5755665968051134  1.0000
  C   C7        1.0  0.4352745226507563  0.5336640816628889  0.36591530739712763  1.0000
  C   C8        1.0  0.5647254778386223  0.03366408230918493  0.6340846927908008  1.0000
  C   C9        1.0  0.4466258814162863  0.5203205051637325  0.2887075098620614  1.0000
  C   C10       1.0  0.5533741190730923  0.020320503937262247  0.711292490325867  1.0000
  C   C11       1.0  0.5213582539730158  0.679290521957387  0.2688132660832228  1.0000
  C   C12       1.0  0.4786417465163627  0.17929052260368303  0.7311867341047057  1.0000
  C   C13       1.0  0.5861356188512458  0.851002835515551  0.3252304945401818  1.0000
  C   C14       1.0  0.41386438081791715  0.3510028342890807  0.6747695054593795  1.0000
  C   C15       1.0  0.6595255565475523  0.03552739682750984  0.30169107430238334  1.0000
  C   C16       1.0  0.3404744439418262  0.5355273961812138  0.6983089258855452  1.0000
  C   C17       1.0  0.7187287000106757  0.20559531476495926  0.3717582851742899  1.0000
  C   C18       1.0  0.28127129965848713  0.7055953141186633  0.6282417148252714  1.0000
  C   C19       1.0  0.8183408931506831  0.20513885605371976  0.5213902387369155  1.0000
  C   C20       1.0  0.18165910651847975  0.7051388554074237  0.47860976126264587  1.0000
  C   C21       1.0  0.9303586335374013  0.14940505919835093  0.553630137367338  1.0000
  C   C22       1.0  0.06964136613499676  0.6494050585520549  0.4463698620593527  1.0000
  C   C23       1.0  0.9991762156316074  0.3005128975090072  0.6134043984821487  1.0000
  C   C24       1.0  0.0008237848577710646  0.8005128968627112  0.3865956017057798  1.0000
  C   C25       1.0  0.9551795053189289  0.5118590227146083  0.6411548133526485  1.0000
  C   C26       1.0  0.04482049517044948  0.0118590233609043  0.35884518683527994  1.0000
  C   C27       1.0  0.8437923869521392  0.564759290342077  0.6095948917509444  1.0000
  C   C28       1.0  0.1562076127170237  0.064759290988373  0.39040510824861685  1.0000
  C   C29       1.0  0.7752044111628719  0.41256163871591206  0.5500133927255654  1.0000
  C   C30       1.0  0.22479558932650662  0.912561638069616  0.4499866074623631  1.0000
  C   C31       1.0  0.04266567310809642  0.8889430839339904  0.1559873083657833  1.0000
  C   C32       1.0  0.9573343265643017  0.3889430845802864  0.8440126910609074  1.0000
  C   C33       1.0  0.0009378176788482094  0.07022519186281782  0.09416437080082472  1.0000
  C   C34       1.0  0.9990621819903147  0.5702251912165217  0.9058356291987366  1.0000
  C   C35       1.0  0.8178036545165497  0.8778866458376314  0.0811600906743636  1.0000
  C   C36       1.0  0.18219634597282874  0.3778866446111611  0.9188399095135648  1.0000
  C   C37       1.0  0.9773064602224041  0.7085293921729792  0.17605455081518484  1.0000
  C   C38       1.0  0.022693540266974527  0.20852939281927518  0.8239454493727436  1.0000
  C   C39       1.0  0.14281929411630603  0.6357640174609559  0.24924241835344857  1.0000
  C   C40       1.0  0.8571807055528569  0.1357640181072519  0.7507575816461128  1.0000
  C   C41       1.0  0.24666355036533505  0.9862763836015143  0.20935478529085363  1.0000
  C   C42       1.0  0.7533364493038278  0.4862763842478103  0.7906452147087077  1.0000
  C   C43       1.0  0.8351764043360687  0.21357880543511956  0.9912514675028815  1.0000
  C   C44       1.0  0.16482359533309424  0.7135788047888235  0.008748532496679914  1.0000
  C   C45       1.0  0.7931883420908272  0.5226253842823549  0.16119148632120728  1.0000
  C   C46       1.0  0.20681165757833564  0.022625384928650905  0.8388085136783541  1.0000
  C   C47       1.0  0.4966905593722257  0.15227829856436464  0.07794323001789781  1.0000
  C   C48       1.0  0.5033094402969372  0.6522782979180687  0.9220567699816635  1.0000
  N   N1        1.0  0.8854710908695093  0.05204292080149242  0.06050414956249868  1.0000
  N   N2        1.0  0.11452890879965366  0.5520429220279627  0.9394958504370625  1.0000
  N   N3        1.0  0.8657296327974188  0.7034486519212941  0.14002266700671004  1.0000
  N   N4        1.0  0.1342703668717442  0.2034486525675902  0.8599773329928513  1.0000
  N   N5        1.0  0.03969447792016449  0.550199717274921  0.23340313569412277  1.0000
  N   N6        1.0  0.9603055217522336  0.050199717921217045  0.766596863732568  1.0000
  N   N7        1.0  0.14880519762316236  0.8383428018866186  0.20419795221820852  1.0000
  N   N8        1.0  0.8511948028662161  0.3383428025329147  0.79580204796972  1.0000
  O   O1        1.0  0.6461223056804383  0.9869765060724136  0.4646438139892982  1.0000
  O   O2        1.0  0.35387769398872465  0.4869765067187095  0.5353561860102631  1.0000
  O   O3        1.0  0.3577763408488856  0.3846246988259823  0.382276697348711  1.0000
  O   O4        1.0  0.6422236588202773  0.8846246981796863  0.6177233026508504  1.0000
  O   O5        1.0  0.5350664156681783  0.677462037148015  0.1946660069551323  1.0000
  O   O6        1.0  0.4649335848212003  0.17746203779431105  0.8053339932327962  1.0000
  O   O7        1.0  0.8122959619090684  0.32007413701339943  0.35880915923852363  1.0000
  O   O8        1.0  0.18770403776009448  0.8200741382398697  0.6411908407610377  1.0000
  O   O9        1.0  0.10839739610249152  0.26161143302340145  0.6478506416893901  1.0000
  O   O10       1.0  0.8916026043868869  0.7616114323771053  0.3521493584985383  1.0000
  O   O11       1.0  0.027024997614756727  0.6527119613170502  0.6992968656256864  1.0000
  O   O12       1.0  0.9729750020544061  0.1527119600905798  0.30070313437387497  1.0000
  O   O13       1.0  0.05371548040354286  0.22798355128815237  0.06908862336194092  1.0000
  O   O14       1.0  0.94628451926562  0.7279835506418563  0.9309113766376204  1.0000
  O   O15       1.0  0.716470449257142  0.8766422600042261  0.04835099698790389  1.0000
  O   O16       1.0  0.28352955041202094  0.37664225877775576  0.9516490030116574  1.0000
  O   O17       1.0  0.4234497343754088  0.32357974403580514  0.09913163251657006  1.0000
  O   O18       1.0  0.5765502661139699  0.8235797433895091  0.9008683676713585  1.0000
