data_image0
_chemical_formula_structural       H92C80N12O24S4
_chemical_formula_sum              "H92 C80 N12 O24 S4"
_cell_length_a       8.870015171748589
_cell_length_b       10.468429119398488
_cell_length_c       22.708817024295886
_cell_angle_alpha    90.0
_cell_angle_beta     90.0
_cell_angle_gamma    90.0

_space_group_name_H-M_alt    "P 1"
_space_group_IT_number       1

loop_
  _space_group_symop_operation_xyz
  'x, y, z'

loop_
  _atom_site_type_symbol
  _atom_site_label
  _atom_site_symmetry_multiplicity
  _atom_site_fract_x
  _atom_site_fract_y
  _atom_site_fract_z
  _atom_site_occupancy
  H   H1        1.0  0.8316634613541211  0.9416277779188327  0.990890767490241  1.0000
  H   H2        1.0  0.6683365389138736  0.05837222213862701  0.49089076714446966  1.0000
  H   H3        1.0  0.1683365395761379  0.4416277778901028  0.5091092326663578  1.0000
  H   H4        1.0  0.33166346088899157  0.5583722221673568  0.009109232760944047  1.0000
  H   H5        1.0  0.8050361574062925  0.9022513857879295  0.915835247505362  1.0000
  H   H6        1.0  0.6949638428617021  0.09774861426953016  0.4158352475999483  1.0000
  H   H7        1.0  0.19496384239657263  0.40225138575919966  0.5841647526512368  1.0000
  H   H8        1.0  0.30503615806855683  0.59774861429826  0.08416475230546544  1.0000
  H   H9        1.0  0.7949619795982759  0.7802204998326733  0.970379225673613  1.0000
  H   H10       1.0  0.7050380206697187  0.21977950022478634  0.47037922576819924  1.0000
  H   H11       1.0  0.2050380202045892  0.2802204998039435  0.5296207740426282  1.0000
  H   H12       1.0  0.2949619791331465  0.7197795002535162  0.029620774137214503  1.0000
  H   H13       1.0  0.6089581162390709  0.9247490200856656  0.06282235479169501  1.0000
  H   H14       1.0  0.8910418840289237  0.07525097997179393  0.5628223546971087  1.0000
  H   H15       1.0  0.391041884691188  0.42474902005693593  0.4371776451137187  1.0000
  H   H16       1.0  0.10895811577394146  0.5752509800005238  0.9371776450191324  1.0000
  H   H17       1.0  0.5584935249917305  0.7683833780843512  0.038889218626190526  1.0000
  H   H18       1.0  0.941506475276264  0.23161662197310842  0.5388892189719618  1.0000
  H   H19       1.0  0.4415064748111346  0.2683833780556214  0.46111078127922317  1.0000
  H   H20       1.0  0.05849352565399489  0.7316166220018383  0.9611107811846369  1.0000
  H   H21       1.0  0.4247538326653482  0.8964635298155637  0.03475499006203611  1.0000
  H   H22       1.0  0.07524616667238748  0.10353647024189609  0.5347549904078074  1.0000
  H   H23       1.0  0.575246167137517  0.39646352978683375  0.46524500984337763  1.0000
  H   H24       1.0  0.9247538331304778  0.6035364702706258  0.9652450097487912  1.0000
  H   H25       1.0  0.39952626138534475  0.7932346405835091  0.9375759572689656  1.0000
  H   H26       1.0  0.10047373795239098  0.20676535947395056  0.437575957363552  1.0000
  H   H27       1.0  0.6004737384175204  0.29323464055477927  0.562424042887633  1.0000
  H   H28       1.0  0.8995262618504742  0.7067653595026804  0.06242404254186172  1.0000
  H   H29       1.0  0.2655653214103393  0.6370604790781828  0.830239726262649  1.0000
  H   H30       1.0  0.23443467905479018  0.36293952097927684  0.3302397263572353  1.0000
  H   H31       1.0  0.7344346795199197  0.13706047904945298  0.6697602734535921  1.0000
  H   H32       1.0  0.7655653207480749  0.8629395210080066  0.1697602735481784  1.0000
  H   H33       1.0  0.3480633324995069  0.5120795344610427  0.9189545553021624  1.0000
  H   H34       1.0  0.15193666796562255  0.48792046559641705  0.4189545549563911  1.0000
  H   H35       1.0  0.6519366673033583  0.012079534432312801  0.5810454448544363  1.0000
  H   H36       1.0  0.8480633318372426  0.9879204656251469  0.08104544494902263  1.0000
  H   H37       1.0  0.4077857331654316  0.6190025338178282  0.7367168308283436  1.0000
  H   H38       1.0  0.09221426729969788  0.38099746623963143  0.23671683092292983  1.0000
  H   H39       1.0  0.5922142666374336  0.11900253378909839  0.7632831693282552  1.0000
  H   H40       1.0  0.9077857325031673  0.8809974653131082  0.26328316942284147  1.0000
  H   H41       1.0  0.6255434993699319  0.4731805874122042  0.7273827919934178  1.0000
  H   H42       1.0  0.8744565008980627  0.5268194126452554  0.22738279208800413  1.0000
  H   H43       1.0  0.37445650043293327  0.9731805874409339  0.7726172077228234  1.0000
  H   H44       1.0  0.12554349890480243  0.026819412616525623  0.27261720781740956  1.0000
  H   H45       1.0  0.5743786094331615  0.7374695173408785  0.9063808461699557  1.0000
  H   H46       1.0  0.9256213908348331  0.2625304827165812  0.4063808458241844  1.0000
  H   H47       1.0  0.42562139149709743  0.23746951731214863  0.593619153986643  1.0000
  H   H48       1.0  0.07437860896803206  0.762530482745311  0.09361915408122932  1.0000
  H   H49       1.0  0.8040821173244951  0.2971837736604706  0.7914377658145433  1.0000
  H   H50       1.0  0.6959178829434995  0.702816226396989  0.2914377659091295  1.0000
  H   H51       1.0  0.1959178824783701  0.7971837736892005  0.7085622339016979  1.0000
  H   H52       1.0  0.3040821168593656  0.2028162263682592  0.20856223399628418  1.0000
  H   H53       1.0  0.4039700756558709  0.24833820436178092  0.9379590965575817  1.0000
  H   H54       1.0  0.0960299248092586  0.7516617956956787  0.43795909665216803  1.0000
  H   H55       1.0  0.5960299241469943  0.7483382043905107  0.562040903599017  1.0000
  H   H56       1.0  0.9039700749936066  0.2516617956669489  0.062040903693603294  1.0000
  H   H57       1.0  0.43221114910948233  0.33522224681229346  0.043028208776995806  1.0000
  H   H58       1.0  0.06778885135564713  0.6647777532451662  0.5430282086824095  1.0000
  H   H59       1.0  0.5677888506933828  0.8352222468410233  0.45697179156877554  1.0000
  H   H60       1.0  0.9322111484472181  0.16477775321643634  0.9569717914741893  1.0000
  H   H61       1.0  0.9316802169990961  0.38683709502278096  0.6902965162486727  1.0000
  H   H62       1.0  0.5683197821415047  0.6131629050346787  0.19029651634325898  1.0000
  H   H63       1.0  0.06831978280376907  0.8868370950515108  0.8097034834675685  1.0000
  H   H64       1.0  0.43168021766136044  0.11316290500594887  0.3097034835621547  1.0000
  H   H65       1.0  0.004647485850001478  0.24541018434555892  0.6573542507312907  1.0000
  H   H66       1.0  0.49535251461512797  0.7545898147566475  0.15735425082587698  1.0000
  H   H67       1.0  0.9953525150802575  0.7454101843742887  0.8426457489849504  1.0000
  H   H68       1.0  0.5046474851877372  0.2545898156831709  0.3426457490795367  1.0000
  H   H69       1.0  0.09929014358454388  0.08683474374541422  0.7549692078480951  1.0000
  H   H70       1.0  0.4007098557531918  0.9131652563120455  0.25496920794268135  1.0000
  H   H71       1.0  0.9007098562183212  0.586834743774144  0.7450307918681461  1.0000
  H   H72       1.0  0.5992901440496733  0.4131652562833156  0.24503079196273234  1.0000
  H   H73       1.0  0.015107832106851134  0.14630646513734097  0.8216289457102851  1.0000
  H   H74       1.0  0.48489216835827836  0.8536935349201187  0.3216289458048713  1.0000
  H   H75       1.0  0.984892167696014  0.6463064651660708  0.6783710540059562  1.0000
  H   H76       1.0  0.5151078325719807  0.3536935348913888  0.1783710541005424  1.0000
  H   H77       1.0  0.29264594138098665  0.23780723369343917  0.7876733698132657  1.0000
  H   H78       1.0  0.20735405908414278  0.7621927663640204  0.28767336990785214  1.0000
  H   H79       1.0  0.7073540584218785  0.737807233722169  0.7123266299029754  1.0000
  H   H80       1.0  0.7926459418461161  0.26219276633529065  0.21232662999756158  1.0000
  H   H81       1.0  0.15473898560755509  0.3461724379720715  0.8142395396562193  1.0000
  H   H82       1.0  0.3452610148575744  0.6538275620853882  0.3142395397508057  1.0000
  H   H83       1.0  0.8452610141953101  0.8461724380008012  0.6857604605003793  1.0000
  H   H84       1.0  0.6547389849452907  0.15382756205665832  0.1857604605949656  1.0000
  H   H85       1.0  0.18299340514882342  0.44138990456913  0.7194659256147046  1.0000
  H   H86       1.0  0.3170065953163061  0.5586100954883297  0.21946592526893324  1.0000
  H   H87       1.0  0.8170065957814355  0.9413899045978598  0.7805340745418942  1.0000
  H   H88       1.0  0.6829934044865591  0.05861009545959984  0.28053407463648045  1.0000
  H   H89       1.0  0.24874737385201598  0.2976798719709971  0.6875229970498252  1.0000
  H   H90       1.0  0.2512526266131135  0.7023201280864625  0.18752299714441148  1.0000
  H   H91       1.0  0.7512526270782429  0.797679871999727  0.8124770026664159  1.0000
  H   H92       1.0  0.7487473731897517  0.2023201280577327  0.3124770027610022  1.0000
  C   C1        1.0  0.5850692901325618  0.13938327645512497  0.9803595636963959  1.0000
  C   C2        1.0  0.9149307101354328  0.8606167226470816  0.4803595633506246  1.0000
  C   C3        1.0  0.4149307096703034  0.6393832764838548  0.519640436460203  1.0000
  C   C4        1.0  0.0850692896674323  0.36061672261835165  0.01964043655478919  1.0000
  C   C5        1.0  0.5025038710414435  0.02846979394909682  0.8902426074581855  1.0000
  C   C6        1.0  0.9974961280991574  0.9715302061083628  0.3902426075527717  1.0000
  C   C7        1.0  0.4974961287614217  0.5284697939778267  0.6097573926984133  1.0000
  C   C8        1.0  0.0025038717037077804  0.471530206079633  0.1097573927929996  1.0000
  C   C9        1.0  0.6159373072326977  0.34576738388500294  0.917423852053164  1.0000
  C   C10       1.0  0.8840626919079032  0.6542326161724568  0.4174238517073927  1.0000
  C   C11       1.0  0.3840626925701675  0.8457673839137327  0.5825761481034347  1.0000
  C   C12       1.0  0.11593730789496196  0.1542326161437269  0.08257614819802103  1.0000
  C   C13       1.0  0.5138695032357484  0.26568124388846326  0.9583838183519299  1.0000
  C   C14       1.0  0.9861304970322462  0.7343187561689964  0.4583838180061585  1.0000
  C   C15       1.0  0.4861304965671166  0.765681243917193  0.5416161818046689  1.0000
  C   C16       1.0  0.013869502770619043  0.23431875614026657  0.041616181899255165  1.0000
  C   C17       1.0  0.5371589166132993  0.42875306589054885  0.873160306359675  1.0000
  C   C18       1.0  0.9628410825273016  0.5712469341669109  0.3731603064542614  1.0000
  C   C19       1.0  0.4628410831895658  0.9287530659192786  0.6268396937969236  1.0000
  C   C20       1.0  0.03715891727556361  0.07124693413818098  0.12683969389150995  1.0000
  C   C21       1.0  0.6192683116817211  0.433141787395561  0.010799947427362937  1.0000
  C   C22       1.0  0.8807316874588798  0.5668582126618986  0.5107999473327767  1.0000
  C   C23       1.0  0.38073168812114405  0.9331417874242908  0.4892000524780508  1.0000
  C   C24       1.0  0.1192683123439854  0.06685821263316878  0.9892000523834644  1.0000
  C   C25       1.0  0.7355283676153919  0.2756752572028517  0.8793637180058775  1.0000
  C   C26       1.0  0.7644716315252089  0.7243247428546079  0.37936371810046393  1.0000
  C   C27       1.0  0.2644716321874732  0.7756752572315815  0.6206362817103636  1.0000
  C   C28       1.0  0.23552836827765625  0.2243247428258782  0.1206362818049498  1.0000
  C   C29       1.0  0.5987689724495702  0.899799146802767  0.9679891681051394  1.0000
  C   C30       1.0  0.9012310278184245  0.1002008532546927  0.46798916819972564  1.0000
  C   C31       1.0  0.4012310284806888  0.39979914677403705  0.5320108320514594  1.0000
  C   C32       1.0  0.09876897198444066  0.6002008532834225  0.03201083214604567  1.0000
  C   C33       1.0  0.6131245442873237  0.4164370528068773  0.8191809903658686  1.0000
  C   C34       1.0  0.886875455980671  0.5835629472505823  0.3191809904604549  1.0000
  C   C35       1.0  0.38687545551554153  0.9164370528356071  0.6808190097907302  1.0000
  C   C36       1.0  0.1131245449495879  0.08356294722185252  0.18081900988531646  1.0000
  C   C37       1.0  0.5116818643620515  0.821052793305236  0.9217792907311974  1.0000
  C   C38       1.0  0.9883181359059432  0.17894720675222367  0.4217792908257836  1.0000
  C   C39       1.0  0.4883181354408137  0.32105279327650615  0.5782207089850439  1.0000
  C   C40       1.0  0.011681863896921973  0.6789472067809534  0.07822070907963011  1.0000
  C   C41       1.0  0.4113136380668424  0.5067381342029671  0.8779273666554263  1.0000
  C   C42       1.0  0.0886863612708933  0.4932618658544925  0.377927366309655  1.0000
  C   C43       1.0  0.5886863617360227  0.006738134174237316  0.6220726335011724  1.0000
  C   C44       1.0  0.9113136385319718  0.9932618658832224  0.12207263359575873  1.0000
  C   C45       1.0  0.7680536535832091  0.8802670567758968  0.9608435096665519  1.0000
  C   C46       1.0  0.7319463466847854  0.11973294328156285  0.46084350976113814  1.0000
  C   C47       1.0  0.23194634621965604  0.380267056747167  0.5391564900496892  1.0000
  C   C48       1.0  0.26805365311807966  0.6197329433102926  0.03915649014427561  1.0000
  C   C49       1.0  0.5686611637447341  0.4839037330455817  0.7695530639620297  1.0000
  C   C50       1.0  0.9313388365232604  0.5160962670118779  0.269553064056616  1.0000
  C   C51       1.0  0.43133883718552485  0.9839037330743116  0.7304469361945691  1.0000
  C   C52       1.0  0.0686611632796046  0.016096266983148096  0.23044693628915536  1.0000
  C   C53       1.0  0.44365615884558035  0.5650421178320859  0.7752113838059267  1.0000
  C   C54       1.0  0.056343841619549084  0.4349578822253737  0.275211383900513  1.0000
  C   C55       1.0  0.5563438409572847  0.06504211780335611  0.7247886159103144  1.0000
  C   C56       1.0  0.9436561593107098  0.9349578822541035  0.22478861600490072  1.0000
  C   C57       1.0  0.5441482214565939  0.8709280051488637  0.03018661999286838  1.0000
  C   C58       1.0  0.9558517788114005  0.12907199490859603  0.5301866198982821  1.0000
  C   C59       1.0  0.4558517783462711  0.3709280051201338  0.4698133799125453  1.0000
  C   C60       1.0  0.04414822211885833  0.6290719939820727  0.969813379817959  1.0000
  C   C61       1.0  0.36479979090747316  0.5758631329727519  0.828224251394406  1.0000
  C   C62       1.0  0.1352002095576563  0.42413686708470766  0.3282242510486346  1.0000
  C   C63       1.0  0.635200208895392  0.07586313294402214  0.6717757487621928  1.0000
  C   C64       1.0  0.8647997902452088  0.9241368671134376  0.17177574885677913  1.0000
  C   C65       1.0  0.0039252041091082405  0.30338419678601114  0.6978870750089807  1.0000
  C   C66       1.0  0.4960747963560212  0.6966158032714486  0.19788707510356696  1.0000
  C   C67       1.0  0.9960747968211507  0.8033841968147409  0.8021129247072605  1.0000
  C   C68       1.0  0.5039252034468439  0.19661580324271868  0.30211292480184676  1.0000
  C   C69       1.0  0.05937029078341314  0.1731777632845231  0.7782727660842559  1.0000
  C   C70       1.0  0.44062970968171633  0.8268222367729366  0.27827276573848464  1.0000
  C   C71       1.0  0.940629709019452  0.6731777633132529  0.7217272340723428  1.0000
  C   C72       1.0  0.5593702901211488  0.32682223674420674  0.22172723416692908  1.0000
  C   C73       1.0  0.17981629558876788  0.27647419751229135  0.7793933647474436  1.0000
  C   C74       1.0  0.3201837048763616  0.7235258025451683  0.2793933644016723  1.0000
  C   C75       1.0  0.8201837042140973  0.7764741975410212  0.7206066354091551  1.0000
  C   C76       1.0  0.6798162960538974  0.22352580251643844  0.2206066355037414  1.0000
  C   C77       1.0  0.1650133288003677  0.3378134636692462  0.7179058712110737  1.0000
  C   C78       1.0  0.33498667053736797  0.6621865363882135  0.21790587130566  1.0000
  C   C79       1.0  0.8349866710024975  0.837813463697976  0.7820941285051675  1.0000
  C   C80       1.0  0.6650133292654972  0.16218653635948363  0.2820941285997537  1.0000
  N   N1        1.0  0.5023252118205385  0.3526841532659815  0.0075699064295635665  1.0000
  N   N2        1.0  0.9976747873200623  0.6473158467914781  0.5075699063349773  1.0000
  N   N3        1.0  0.4976747879823267  0.8526841532947114  0.49243009347585015  1.0000
  N   N4        1.0  0.0023252124828027957  0.14731584676274834  0.9924300933812639  1.0000
  N   N5        1.0  0.5554664095381381  0.030294195660391723  0.9482127988861035  1.0000
  N   N6        1.0  0.9445335896024628  0.9697058043970679  0.44821279854033225  1.0000
  N   N7        1.0  0.44453359026472705  0.5302941956891216  0.5517872012704952  1.0000
  N   N8        1.0  0.0554664102004024  0.46970580436833814  0.051787201365081414  1.0000
  N   N9        1.0  0.7308040307130753  0.3271447053745521  0.8247207492121972  1.0000
  N   N10       1.0  0.7691959695549193  0.6728552946829075  0.3247207493067834  1.0000
  N   N11       1.0  0.2691959690897899  0.8271447054032819  0.675279250504044  1.0000
  N   N12       1.0  0.23080403024794585  0.17285529465417773  0.17527925059863028  1.0000
  O   O1        1.0  0.7020061476143428  0.42549433914072676  0.9598147392125469  1.0000
  O   O2        1.0  0.7979938526536517  0.5745056609167328  0.4598147393071332  1.0000
  O   O3        1.0  0.29799385218852237  0.9254943391694567  0.5401852609440518  1.0000
  O   O4        1.0  0.2020061471492133  0.07450566088800303  0.04018526059828055  1.0000
  O   O5        1.0  0.6569093555283441  0.13602244173974204  0.026606556799219003  1.0000
  O   O6        1.0  0.8430906447396505  0.8639775583177175  0.5266065567046327  1.0000
  O   O7        1.0  0.34309064540191486  0.6360224417684719  0.47339344310619474  1.0000
  O   O8        1.0  0.15690935506321463  0.3639775582889878  0.9733934430116084  1.0000
  O   O9        1.0  0.4765956335074262  0.12004627013916384  0.8586473297635189  1.0000
  O   O10       1.0  0.02340436583030955  0.8799537299182958  0.35864732985810516  1.0000
  O   O11       1.0  0.523404366295439  0.6200462701678936  0.6413526703930799  1.0000
  O   O12       1.0  0.9765956339725556  0.379953729889566  0.14135267048766617  1.0000
  O   O13       1.0  0.8220930132369206  0.1906608562980541  0.8963918141672182  1.0000
  O   O14       1.0  0.677906987031074  0.8093391437594055  0.39639181426180453  1.0000
  O   O15       1.0  0.1779069865659445  0.6906608563267839  0.6036081855490228  1.0000
  O   O16       1.0  0.3220930127717912  0.3093391437306757  0.10360818564360914  1.0000
  O   O17       1.0  0.490592510355555  0.9059191595830304  0.8718883770482937  1.0000
  O   O18       1.0  0.009407490109574432  0.09408084047442934  0.3718883771428799  1.0000
  O   O19       1.0  0.5094074894473101  0.40591915955430047  0.6281116231083052  1.0000
  O   O20       1.0  0.9905925108206844  0.5940808405031591  0.1281116232028914  1.0000
  O   O21       1.0  0.9362668765720786  0.22930678066604998  0.7450556817600059  1.0000
  O   O22       1.0  0.5637331236959161  0.7706932193914097  0.24505568185459223  1.0000
  O   O23       1.0  0.06373312435818043  0.7293067806947798  0.7549443183965928  1.0000
  O   O24       1.0  0.43626687610694903  0.2706932193626798  0.25494431805082146  1.0000
  S   S1        1.0  0.6637512784365815  0.5317173337578881  0.06466836068249723  1.0000
  S   S2        1.0  0.8362487207040193  0.46828266629957155  0.5646683605879109  1.0000
  S   S3        1.0  0.33624872136628364  0.03171733372915824  0.43533163966327404  1.0000
  S   S4        1.0  0.16375127909884582  0.9682826663283014  0.9353316395686877  1.0000
