data_image0
_chemical_formula_structural       H24C28N6O10
_chemical_formula_sum              "H24 C28 N6 O10"
_cell_length_a       6.721213832266207
_cell_length_b       6.944925685921644
_cell_length_c       14.109834731565691
_cell_angle_alpha    91.17910190956873
_cell_angle_beta     91.79772438085708
_cell_angle_gamma    96.40119023824882

_space_group_name_H-M_alt    "P 1"
_space_group_IT_number       1

loop_
  _space_group_symop_operation_xyz
  'x, y, z'

loop_
  _atom_site_type_symbol
  _atom_site_label
  _atom_site_symmetry_multiplicity
  _atom_site_fract_x
  _atom_site_fract_y
  _atom_site_fract_z
  _atom_site_occupancy
  H   H1        1.0  0.8003395554250583  0.7083314728492158  0.03606418423180661  1.0000
  H   H2        1.0  0.1996604445163194  0.291668527224197  0.9639358156713647  1.0000
  H   H3        1.0  0.9770089942722106  0.8226612972295608  0.7207984005851117  1.0000
  H   H4        1.0  0.022991005669166967  0.17733870284385175  0.27920159931805977  1.0000
  H   H5        1.0  0.43068526772797044  0.6040819619387858  0.5964249932757114  1.0000
  H   H6        1.0  0.5693147322134071  0.3959180381346268  0.40357500662745993  1.0000
  H   H7        1.0  0.2590134293037203  0.617466443390742  0.7515826473710366  1.0000
  H   H8        1.0  0.7409865706376573  0.3825335566826707  0.24841735253213468  1.0000
  H   H9        1.0  0.4594511145072094  0.7301693160707011  0.896760818320825  1.0000
  H   H10       1.0  0.5405488854341681  0.26983068400271143  0.10323918158234621  1.0000
  H   H11       1.0  0.013414984424043618  0.9208452417922031  0.8848029885479332  1.0000
  H   H12       1.0  0.9865850155173339  0.07915475828120949  0.11519701135523816  1.0000
  H   H13       1.0  0.7962845125991825  0.9818261372210226  0.9421244240805027  1.0000
  H   H14       1.0  0.20371548734219502  0.0181738628523902  0.05787557582266869  1.0000
  H   H15       1.0  0.80453931481992  0.7017152285025356  0.5639332653400461  1.0000
  H   H16       1.0  0.19546068512145756  0.29828477157087696  0.43606673456312517  1.0000
  H   H17       1.0  0.9150826995117598  0.6763594400414233  0.3197494923628018  1.0000
  H   H18       1.0  0.08491730042961776  0.3236405600319892  0.6802505075403694  1.0000
  H   H19       1.0  0.10890285328358165  0.6856174543120043  0.17317520080224377  1.0000
  H   H20       1.0  0.8910971466577959  0.3143825457614085  0.8268247991009275  1.0000
  H   H21       1.0  0.6516523207818835  0.8746371199028613  0.33838203551110585  1.0000
  H   H22       1.0  0.34834767915949416  0.12536288017055136  0.6616179643920654  1.0000
  H   H23       1.0  0.4530645465332239  0.8573185519355824  0.4845310203161983  1.0000
  H   H24       1.0  0.5469354534081536  0.1426814481378304  0.515468979586973  1.0000
  C   C1        1.0  0.735708328324367  0.7885054790182581  0.8212546436896329  1.0000
  C   C2        1.0  0.2642916716170105  0.21149452105515457  0.17874535621353846  1.0000
  C   C3        1.0  0.8188288277604929  0.7779178360096825  0.73221244884958  1.0000
  C   C4        1.0  0.18117117218088458  0.2220821640637302  0.2677875510535913  1.0000
  C   C5        1.0  0.5132487967816551  0.6557969358889378  0.6613833410856629  1.0000
  C   C6        1.0  0.4867512031597225  0.3442030641844748  0.3386166588175084  1.0000
  C   C7        1.0  0.4183684624545935  0.6622901150451513  0.7473481957879552  1.0000
  C   C8        1.0  0.581631537486784  0.3377098850282614  0.2526518041152161  1.0000
  C   C9        1.0  0.5312335562743781  0.7274507184160851  0.8284704822231246  1.0000
  C   C10       1.0  0.4687664436669996  0.2725492816573276  0.1715295176800466  1.0000
  C   C11       1.0  0.8634763775171641  0.8636089355236293  0.9070536443584837  1.0000
  C   C12       1.0  0.13652362242421348  0.13639106454978342  0.09294635554468769  1.0000
  C   C13       1.0  0.0023681418662330395  0.5750048977531089  0.9611075761525565  1.0000
  C   C14       1.0  0.9976318580751447  0.42499510232030374  0.0388924237506148  1.0000
  C   C15       1.0  0.06099848850369605  0.769118632430912  0.5015631705542929  1.0000
  C   C16       1.0  0.9390015114376815  0.23088136764250075  0.4984368293488784  1.0000
  C   C17       1.0  0.17295037497423815  0.7674722552227874  0.4112564781989662  1.0000
  C   C18       1.0  0.8270496249671393  0.2325277448506253  0.588743521704205  1.0000
  C   C19       1.0  0.07584319320633295  0.7182763859983013  0.3234529489502848  1.0000
  C   C20       1.0  0.9241568065633177  0.2817236126257566  0.6765470509360787  1.0000
  C   C21       1.0  0.1841302594706348  0.724157789759426  0.24112979592657785  1.0000
  C   C22       1.0  0.8158697404707427  0.27584221031398665  0.7588702039765934  1.0000
  C   C23       1.0  0.3906078043937687  0.7790720151180169  0.2476586635069209  1.0000
  C   C24       1.0  0.6093921955476088  0.2209279849553956  0.7523413363962503  1.0000
  C   C25       1.0  0.49168168145298674  0.8285208265938188  0.3343488578030418  1.0000
  C   C26       1.0  0.5083183184843898  0.17147917348049962  0.6656511428088016  1.0000
  C   C27       1.0  0.38042667257037543  0.8208821167246783  0.415691011363172  1.0000
  C   C28       1.0  0.619573327199275  0.1791178818993798  0.5843089885231914  1.0000
  N   N1        1.0  0.7095910503995033  0.7122050592661521  0.6545027430189286  1.0000
  N   N2        1.0  0.29040894954187413  0.28779494080726076  0.3454972568842427  1.0000
  N   N3        1.0  0.8832051752365329  0.7142240008424521  0.9764374091007657  1.0000
  N   N4        1.0  0.1167948247048447  0.2857759992309606  0.02356259080240564  1.0000
  N   N5        1.0  0.5036014207678643  0.7847562704558947  0.16073932593726864  1.0000
  N   N6        1.0  0.49639857917351327  0.21524372961751803  0.8392606739659025  1.0000
  O   O1        1.0  0.10843169034453688  0.5638687521499395  0.8910575322931599  1.0000
  O   O2        1.0  0.8915683095968406  0.43613124792347324  0.10894246761001153  1.0000
  O   O3        1.0  0.8728154871241895  0.6914722546662746  0.4940936943243693  1.0000
  O   O4        1.0  0.127184512817188  0.3085277454071382  0.505906305578802  1.0000
  O   O5        1.0  0.14437367786471453  0.8404688853358168  0.5757922667653322  1.0000
  O   O6        1.0  0.8556263220766631  0.15953111473759585  0.42420773313783905  1.0000
  O   O7        1.0  0.41073598621053203  0.7480520675142593  0.08347134781916932  1.0000
  O   O8        1.0  0.5892640137308455  0.2519479325591533  0.9165286520840019  1.0000
  O   O9        1.0  0.6889620549929822  0.8256161743263053  0.16731961064242729  1.0000
  O   O10       1.0  0.3110379449483954  0.1743838257471073  0.8326803892607441  1.0000
