data_image0
_chemical_formula_structural       H80C20N40S20
_chemical_formula_sum              "H80 C20 N40 S20"
_cell_length_a       10.399417800553863
_cell_length_b       20.810444379257326
_cell_length_c       8.08252197120303
_cell_angle_alpha    90.0
_cell_angle_beta     94.74848302909236
_cell_angle_gamma    90.0

_space_group_name_H-M_alt    "P 1"
_space_group_IT_number       1

loop_
  _space_group_symop_operation_xyz
  'x, y, z'

loop_
  _atom_site_type_symbol
  _atom_site_label
  _atom_site_symmetry_multiplicity
  _atom_site_fract_x
  _atom_site_fract_y
  _atom_site_fract_z
  _atom_site_occupancy
  H   H1        1.0  0.1940473129117433  0.6994343674135157  0.8266621887033357  1.0000
  H   H2        1.0  0.8059526874216223  0.19943436739567186  0.6733378116695603  1.0000
  H   H3        1.0  0.8059526867729321  0.30056563262217195  0.1733378118836997  1.0000
  H   H4        1.0  0.19404731322772867  0.8005656326400157  0.32666218778269396  1.0000
  H   H5        1.0  0.32041744837824654  0.6625838789749132  0.7283865405755924  1.0000
  H   H6        1.0  0.679582551955119  0.16258387895706947  0.7716134597973038  1.0000
  H   H7        1.0  0.6795825513064288  0.3374161210607743  0.27161346001144315  1.0000
  H   H8        1.0  0.3204174486944604  0.8374161210786182  0.22838654089221233  1.0000
  H   H9        1.0  0.19887176129958545  0.7032242004686239  0.11150149769246749  1.0000
  H   H10       1.0  0.8011282387010752  0.20322420045078005  0.3884985019739261  1.0000
  H   H11       1.0  0.8011282383848612  0.29677579956706374  0.8884985016573062  1.0000
  H   H12       1.0  0.19887176098337153  0.7967757995849075  0.6115014973758476  1.0000
  H   H13       1.0  0.3213532255656308  0.6625735466631143  0.23680004099698707  1.0000
  H   H14       1.0  0.6786467744350301  0.1625735466452706  0.26319995866940654  1.0000
  H   H15       1.0  0.678646774118816  0.3374264533725732  0.7631999583527865  1.0000
  H   H16       1.0  0.3213532252496453  0.837426453390417  0.736800041917629  1.0000
  H   H17       1.0  0.06617976788302686  0.5889752240090039  0.30768826216619916  1.0000
  H   H18       1.0  0.9338202321176338  0.08897522399116013  0.19231173750019442  1.0000
  H   H19       1.0  0.933820232766324  0.4110247760266837  0.6923117372860551  1.0000
  H   H20       1.0  0.06617976756681294  0.9110247760445274  0.8076882618495792  1.0000
  H   H21       1.0  0.1553033997430924  0.5304389184981904  0.20819049167485446  1.0000
  H   H22       1.0  0.8446966002575683  0.03043891848034656  0.29180950799153915  1.0000
  H   H23       1.0  0.844696599941583  0.46956108153749726  0.791809508912181  1.0000
  H   H24       1.0  0.1553034003917826  0.969561081555341  0.708190491460715  1.0000
  H   H25       1.0  0.0770866731752419  0.5927721376433306  0.594956134969955  1.0000
  H   H26       1.0  0.9229133271581237  0.09277213762548686  0.905043865402941  1.0000
  H   H27       1.0  0.9229133265094334  0.4072278623923569  0.40504386561708045  1.0000
  H   H28       1.0  0.07708667349122732  0.9072278624102008  0.09495613404931313  1.0000
  H   H29       1.0  0.15244430758462438  0.5302452345034354  0.7151652210072956  1.0000
  H   H30       1.0  0.8475556927487413  0.03024523448559162  0.7848347793656003  1.0000
  H   H31       1.0  0.847555693064955  0.46975476553225215  0.2848347796822204  1.0000
  H   H32       1.0  0.15244430693570568  0.969754765550096  0.2151652199841732  1.0000
  H   H33       1.0  0.6844564561802049  0.7103242122371026  0.656880476581692  1.0000
  H   H34       1.0  0.3155435441529322  0.21032421221925884  0.843119522553942  1.0000
  H   H35       1.0  0.3155435444691461  0.28967578779858494  0.3431195228705621  1.0000
  H   H36       1.0  0.6844564555315147  0.7896757878164288  0.15688047679583153  1.0000
  H   H37       1.0  0.5610229855301363  0.6719187449902507  0.7609768497613806  1.0000
  H   H38       1.0  0.4389770138383251  0.17191874497240697  0.739023150509035  1.0000
  H   H39       1.0  0.43897701415453905  0.32808125504543684  0.23902315082565492  1.0000
  H   H40       1.0  0.5610229858461218  0.8280812550632807  0.26097684884073863  1.0000
  H   H41       1.0  0.6843550265586332  0.710809720850752  0.38642300685127906  1.0000
  H   H42       1.0  0.31564497344225606  0.21080972083290817  0.1135769940523764  1.0000
  H   H43       1.0  0.3156449731260421  0.2891902791849356  0.6135769937357564  1.0000
  H   H44       1.0  0.6843550262424192  0.7891902792027794  0.8864230065346591  1.0000
  H   H45       1.0  0.5621065254994949  0.6725272903806905  0.25545771260083777  1.0000
  H   H46       1.0  0.4378934745011659  0.17252729036284672  0.24454228706555586  1.0000
  H   H47       1.0  0.437893475149856  0.3274727096549971  0.7445422868514164  1.0000
  H   H48       1.0  0.5621065251835095  0.8274727096728408  0.7554577135214797  1.0000
  H   H49       1.0  0.8543507920091712  0.8372018719295493  0.3986020636708295  1.0000
  H   H50       1.0  0.14564920799148953  0.3372018719117055  0.10139793599556406  1.0000
  H   H51       1.0  0.1456492076755041  0.1627981281061383  0.6013979369162059  1.0000
  H   H52       1.0  0.8543507926578614  0.6627981281239821  0.8986020634566901  1.0000
  H   H53       1.0  0.8167471000567593  0.9071520278931073  0.28123442257855497  1.0000
  H   H54       1.0  0.1832528999441299  0.4071520278752635  0.2187655783251005  1.0000
  H   H55       1.0  0.18325290059282012  0.09284797214258025  0.7187655781109611  1.0000
  H   H56       1.0  0.8167470997405453  0.5928479721604241  0.781234422261935  1.0000
  H   H57       1.0  0.8502382240410019  0.8361234552657336  0.6736388794889239  1.0000
  H   H58       1.0  0.14976177629236356  0.3361234552478898  0.8263611208839722  1.0000
  H   H59       1.0  0.1497617756434449  0.16387654476995397  0.32636111986084976  1.0000
  H   H60       1.0  0.850238224357216  0.6638765447877978  0.17363887980554385  1.0000
  H   H61       1.0  0.8134316176218654  0.9060465632725185  0.784209342266626  1.0000
  H   H62       1.0  0.18656838271149997  0.40604656325467475  0.7157906581062701  1.0000
  H   H63       1.0  0.1865683830277139  0.09395343676316904  0.21579065842289002  1.0000
  H   H64       1.0  0.8134316169731755  0.5939534367810128  0.28420934248076546  1.0000
  H   H65       1.0  0.47952560129378957  0.539654178225712  0.1822279127448984  1.0000
  H   H66       1.0  0.5204743987070997  0.03965417820786824  0.3177720881587571  1.0000
  H   H67       1.0  0.5204743983908858  0.4603458218099756  0.817772087842137  1.0000
  H   H68       1.0  0.47952560194247973  0.9603458218278192  0.682227912530759  1.0000
  H   H69       1.0  0.521625973949692  0.46053864902341074  0.18661428760074264  1.0000
  H   H70       1.0  0.4783740260509687  0.9605386490412544  0.31338571206565097  1.0000
  H   H71       1.0  0.4783740257347548  0.5394613510122769  0.813385711749031  1.0000
  H   H72       1.0  0.5216259745983822  0.03946135099443306  0.6866142873866031  1.0000
  H   H73       1.0  0.5790252282549144  0.5110399223670752  0.3418348506839013  1.0000
  H   H74       1.0  0.4209747717457464  0.011039922349231403  0.15816514898249232  1.0000
  H   H75       1.0  0.4209747723946651  0.4889600776686124  0.6581651500056147  1.0000
  H   H76       1.0  0.5790252279387005  0.9889600776864561  0.8418348503672812  1.0000
  H   H77       1.0  0.42027851570392927  0.4888551832242546  0.32322299307169894  1.0000
  H   H78       1.0  0.57972148429696  0.9888551832420984  0.17677700783195655  1.0000
  H   H79       1.0  0.5797214839807461  0.511144816811433  0.6767770075153364  1.0000
  H   H80       1.0  0.4202785163526194  0.011144816793589151  0.8232229928575595  1.0000
  C   C1        1.0  0.33801342151237085  0.6606253595287536  0.9845017927716879  1.0000
  C   C2        1.0  0.6619865788209947  0.1606253595109098  0.5154982076012082  1.0000
  C   C3        1.0  0.6619865781723046  0.339374640506934  0.015498207815347663  1.0000
  C   C4        1.0  0.33801342182835625  0.8393746405247777  0.48450179185104597  1.0000
  C   C5        1.0  0.15911523228577482  0.5225632260327587  0.4622878291929169  1.0000
  C   C6        1.0  0.8408847677151143  0.022563226014914974  0.03771217171073861  1.0000
  C   C7        1.0  0.8408847673989004  0.4774367740029288  0.5377121713941186  1.0000
  C   C8        1.0  0.159115232934465  0.9774367740207726  0.9622878289787774  1.0000
  C   C9        1.0  0.5395069225307866  0.6705495406868385  0.5060492842060264  1.0000
  C   C10       1.0  0.46049307780235055  0.17054954066899472  0.9939507149296078  1.0000
  C   C11       1.0  0.4604930781185644  0.3294504593488491  0.49395071524622786  1.0000
  C   C12       1.0  0.5395069218820963  0.8294504593666928  0.0060492844201657636  1.0000
  C   C13       1.0  0.8224583262892129  0.9175106015050608  0.5341866785740127  1.0000
  C   C14       1.0  0.17754167307924856  0.41751060148721697  0.9658133216964028  1.0000
  C   C15       1.0  0.17754167339546248  0.0824893985306268  0.4658133220130228  1.0000
  C   C16       1.0  0.8224583266054267  0.5824893985484706  0.034186678890632705  1.0000
  C   C17       1.0  0.9394124200691184  0.729045187767463  0.5196970644056886  1.0000
  C   C18       1.0  0.06058758026424721  0.2290451877496191  0.9803029359672075  1.0000
  C   C19       1.0  0.060587579615557004  0.27095481226822465  0.48030293618134684  1.0000
  C   C20       1.0  0.9394124203851036  0.7709548122860685  0.019697063485046736  1.0000
  N   N1        1.0  0.2797131620396343  0.6754002035636301  0.8359206082355692  1.0000
  N   N2        1.0  0.7202868373285987  0.17540020354578634  0.6640793907975845  1.0000
  N   N3        1.0  0.7202868376448126  0.32459979647205744  0.16407939111420444  1.0000
  N   N4        1.0  0.2797131623558482  0.8245997964899012  0.33592060855218914  1.0000
  N   N5        1.0  0.27988280532419013  0.6752916196257372  0.120831945808248  1.0000
  N   N6        1.0  0.7201171946764706  0.17529161960789347  0.37916805385814556  1.0000
  N   N7        1.0  0.7201171943602567  0.3247083804099503  0.8791680535415256  1.0000
  N   N8        1.0  0.27988280597288034  0.8247083804277942  0.6208319455941086  1.0000
  N   N9        1.0  0.12452583525812567  0.5495992498555273  0.3159045886736849  1.0000
  N   N10       1.0  0.875474164742535  0.049599249837683476  0.18409541099270865  1.0000
  N   N11       1.0  0.8754741644265496  0.4504007501801603  0.6840954119133505  1.0000
  N   N12       1.0  0.12452583590681587  0.9504007501980042  0.8159045884595455  1.0000
  N   N13       1.0  0.12102662844917245  0.5488966805238231  0.6005706587227354  1.0000
  N   N14       1.0  0.878973371884193  0.04889668050597939  0.8994293416501606  1.0000
  N   N15       1.0  0.8789733722004069  0.45110331951186444  0.3994293419667806  1.0000
  N   N16       1.0  0.12102662780048225  0.9511033195297082  0.10057065893687485  1.0000
  N   N17       1.0  0.5971659597298504  0.6874624803427942  0.6538253074711502  1.0000
  N   N18       1.0  0.402834040603515  0.18746248032495036  0.8461746929017459  1.0000
  N   N19       1.0  0.40283404091972896  0.31253751969289345  0.3461746932183658  1.0000
  N   N20       1.0  0.5971659590811603  0.8125375197107372  0.15382530768528965  1.0000
  N   N21       1.0  0.5977256751027048  0.6877137075585479  0.37082807261658696  1.0000
  N   N22       1.0  0.40227432489795595  0.18771370754070413  0.12917192704980668  1.0000
  N   N23       1.0  0.4022743255466461  0.3122862924771396  0.6291719268356671  1.0000
  N   N24       1.0  0.5977256747867195  0.8122862924949833  0.8708280735372288  1.0000
  N   N25       1.0  0.8425147341258581  0.8857918319309745  0.3937773504488237  1.0000
  N   N26       1.0  0.1574852658748026  0.3857918319131308  0.10622264921756983  1.0000
  N   N27       1.0  0.15748526555858872  0.11420816810471297  0.6062226489009498  1.0000
  N   N28       1.0  0.8425147338098726  0.6142081681225569  0.8937773513694657  1.0000
  N   N29       1.0  0.8429760923097191  0.8851818584114926  0.6785050896055699  1.0000
  N   N30       1.0  0.1570239080236464  0.3851818583936488  0.8214949107673263  1.0000
  N   N31       1.0  0.15702390833986032  0.11481814162419497  0.3214949110839462  1.0000
  N   N32       1.0  0.8429760916610289  0.6148181416420387  0.17850508981970933  1.0000
  N   N33       1.0  0.8374161965959294  0.7481661965622881  0.5558019229043237  1.0000
  N   N34       1.0  0.16258380373743606  0.24816619654444433  0.9441980774685724  1.0000
  N   N35       1.0  0.1625838030887459  0.2518338034733995  0.44419807768271186  1.0000
  N   N36       1.0  0.8374161959470108  0.7518338034912433  0.0558019218812012  1.0000
  N   N37       1.0  0.500128021145914  0.5000016929177818  0.25872347985952915  1.0000
  N   N38       1.0  0.49987197885474677  1.6928999380289674e-06  0.24127651980686446  1.0000
  N   N39       1.0  0.4998719795034369  0.49999830711790577  0.7412765195927249  1.0000
  N   N40       1.0  0.5001280208297001  0.9999983071357497  0.7587234795429091  1.0000
  S   S1        1.0  0.4869260088958366  0.6238420450521542  0.9996292201156285  1.0000
  S   S2        1.0  0.513073991437529  0.12384204551483848  0.5003707802572677  1.0000
  S   S3        1.0  0.5130739917535143  0.3761579545030053  0.00037077933662574454  1.0000
  S   S4        1.0  0.4869260082471463  0.8761579545208491  0.49962922032976786  1.0000
  S   S5        1.0  0.2516468859195094  0.4535833030748988  0.472533398847505  1.0000
  S   S6        1.0  0.7483531140811513  0.9535833030927426  0.02746660081888861  1.0000
  S   S7        1.0  0.7483531137651658  0.5464166969607888  0.5274666017395305  1.0000
  S   S8        1.0  0.25164688656819967  0.04641669694294498  0.9725333986333655  1.0000
  S   S9        1.0  0.39808409269301553  0.6285285576620057  0.49008770524382644  1.0000
  S   S10       1.0  0.6019159073076452  0.12852855764416188  0.009912294422567173  1.0000
  S   S11       1.0  0.6019159079563354  0.3714714423736819  0.5099122942084277  1.0000
  S   S12       1.0  0.3980840923768017  0.8714714423915256  0.9900877049272064  1.0000
  S   S13       1.0  0.7745553564131988  0.9958183098990397  0.5301731842636007  1.0000
  S   S14       1.0  0.22544464392016672  0.49581830988119585  0.9698268161092953  1.0000
  S   S15       1.0  0.22544464423615218  0.004181690136647895  0.46982681518865343  1.0000
  S   S16       1.0  0.7745553557645086  0.5041816901544917  0.03017318447774013  1.0000
  S   S17       1.0  0.0796665617855701  0.7040776829640627  0.4711211894299575  1.0000
  S   S18       1.0  0.9203334382150906  0.2040776829462189  0.028878810236436125  1.0000
  S   S19       1.0  0.9203334388637808  0.29592231707162486  0.5288788100222968  1.0000
  S   S20       1.0  0.07966656146935619  0.7959223170894687  0.9711211891133374  1.0000
