data_image0
_chemical_formula_structural       H56C56N8O20
_chemical_formula_sum              "H56 C56 N8 O20"
_cell_length_a       31.925026545906395
_cell_length_b       4.051605235427572
_cell_length_c       9.674172555645502
_cell_angle_alpha    90.0
_cell_angle_beta     90.0
_cell_angle_gamma    90.0

_space_group_name_H-M_alt    "P 1"
_space_group_IT_number       1

loop_
  _space_group_symop_operation_xyz
  'x, y, z'

loop_
  _atom_site_type_symbol
  _atom_site_label
  _atom_site_symmetry_multiplicity
  _atom_site_fract_x
  _atom_site_fract_y
  _atom_site_fract_z
  _atom_site_occupancy
  H   H1        1.0  0.4527898430785657  0.849750355709734  0.6591355398430276  1.0000
  H   H2        1.0  0.5472101570496599  0.15024964541881322  0.1591355396179697  1.0000
  H   H3        1.0  0.9527898429860616  0.15024964541881322  0.6591355398430276  1.0000
  H   H4        1.0  0.04721015714216406  0.849750355709734  0.1591355396179697  1.0000
  H   H5        1.0  0.6944472192723296  0.02911175525410057  0.46425692369721444  1.0000
  H   H6        1.0  0.30555278085589604  0.9708882434062891  0.9642569239222725  1.0000
  H   H7        1.0  0.1944472193648337  0.9708882434062891  0.46425692369721444  1.0000
  H   H8        1.0  0.8055527807633919  0.02911175525410057  0.9642569239222725  1.0000
  H   H9        1.0  0.4973854028646407  0.014486273116340782  0.7424722102779087  1.0000
  H   H10       1.0  0.5026145972635849  0.985513725544049  0.2424722110865309  1.0000
  H   H11       1.0  0.9973854027721365  0.985513725544049  0.7424722102779087  1.0000
  H   H12       1.0  0.002614597042855181  0.014486273116340782  0.2424722110865309  1.0000
  H   H13       1.0  0.5616715655417133  0.6636196134039832  0.35114009807667096  1.0000
  H   H14       1.0  0.43832843427327844  0.33638038525640646  0.851140098301729  1.0000
  H   H15       1.0  0.06167156563421743  0.33638038525640646  0.35114009807667096  1.0000
  H   H16       1.0  0.9383284344940083  0.6636196134039832  0.851140098301729  1.0000
  H   H17       1.0  0.6366779893126294  0.7981626990021223  0.33861474055353186  1.0000
  H   H18       1.0  0.3633220108155963  0.20183729965826744  0.8386147397449097  1.0000
  H   H19       1.0  0.1366779894051335  0.20183729965826744  0.33861474055353186  1.0000
  H   H20       1.0  0.8633220107230921  0.7981626990021223  0.8386147397449097  1.0000
  H   H21       1.0  0.6247541492665571  0.40455229341390286  0.7024872133414767  1.0000
  H   H22       1.0  0.3752458505484347  0.5954477077146445  0.20248721311641873  1.0000
  H   H23       1.0  0.1247541493590612  0.5954477077146445  0.7024872133414767  1.0000
  H   H24       1.0  0.8752458504559305  0.40455229341390286  0.20248721311641873  1.0000
  H   H25       1.0  0.5497220725804016  0.27394682983789465  0.715005648308747  1.0000
  H   H26       1.0  0.45027792754782414  0.7260531688224952  0.21500564808368913  1.0000
  H   H27       1.0  0.04972207267290566  0.7260531688224952  0.715005648308747  1.0000
  H   H28       1.0  0.95027792745532  0.27394682983789465  0.21500564808368913  1.0000
  H   H29       1.0  0.20283442304076407  0.44507861087549827  0.40515100981041724  1.0000
  H   H30       1.0  0.7971655770874616  0.554921390253049  0.905151010035475  1.0000
  H   H31       1.0  0.7028344229482599  0.554921390253049  0.40515100981041724  1.0000
  H   H32       1.0  0.2971655768667318  0.44507861087549827  0.905151010035475  1.0000
  H   H33       1.0  0.21854344803652578  0.17988249536929216  0.2807275241762307  1.0000
  H   H34       1.0  0.7814565520916998  0.8201175057592551  0.7807275244012886  1.0000
  H   H35       1.0  0.7185434479440217  0.8201175057592551  0.2807275241762307  1.0000
  H   H36       1.0  0.28145655218420396  0.17988249536929216  0.7807275244012886  1.0000
  H   H37       1.0  0.3540342465729062  0.7614537154369196  0.6899422531082444  1.0000
  H   H38       1.0  0.6459657532420856  0.23854628322347013  0.18994225288318645  1.0000
  H   H39       1.0  0.854034246793636  0.23854628322347013  0.6899422531082444  1.0000
  H   H40       1.0  0.1459657533345897  0.7614537154369196  0.18994225288318645  1.0000
  H   H41       1.0  0.44855935889068904  0.558311947625194  0.4485865674855576  1.0000
  H   H42       1.0  0.5514406409243028  0.4416880535033534  0.9485865677106154  1.0000
  H   H43       1.0  0.9485593587981849  0.4416880535033534  0.4485865674855576  1.0000
  H   H44       1.0  0.05144064101680685  0.558311947625194  0.9485865677106154  1.0000
  H   H45       1.0  0.24742657452896832  0.5925166990625276  0.6002570417881629  1.0000
  H   H46       1.0  0.7525734252860234  0.4074832995978621  0.10025704156310493  1.0000
  H   H47       1.0  0.7474265747496981  0.4074832995978621  0.6002570417881629  1.0000
  H   H48       1.0  0.25257342537852756  0.5925166990625276  0.10025704156310493  1.0000
  H   H49       1.0  0.290084240233388  0.022599672149534338  0.24873556432438898  1.0000
  H   H50       1.0  0.7099157598948377  0.9774003289790129  0.7487355635157666  1.0000
  H   H51       1.0  0.7900842401408839  0.9774003289790129  0.24873556432438898  1.0000
  H   H52       1.0  0.20991575967410786  0.022599672149534338  0.7487355635157666  1.0000
  H   H53       1.0  0.3633264646881654  0.13601708902467713  0.315152152027804  1.0000
  H   H54       1.0  0.6366735354400603  0.8639829121038701  0.8151521512191817  1.0000
  H   H55       1.0  0.8633264645956612  0.8639829121038701  0.315152152027804  1.0000
  H   H56       1.0  0.13667353553256442  0.13601708902467713  0.8151521512191817  1.0000
  C   C1        1.0  0.5500009237189338  0.9578217976585427  0.5331429349986259  1.0000
  C   C2        1.0  0.4499990764092918  0.042178201001847056  0.033142934773567945  1.0000
  C   C3        1.0  0.05000092381143796  0.042178201001847056  0.5331429349986259  1.0000
  C   C4        1.0  0.9499990763167877  0.9578217976585427  0.033142934773567945  1.0000
  C   C5        1.0  0.5752535846318618  0.8305729913109045  0.4270935406862102  1.0000
  C   C6        1.0  0.42474641518312994  0.16942700981764275  0.9270935409112682  1.0000
  C   C7        1.0  0.075253584724366  0.16942700981764275  0.4270935406862102  1.0000
  C   C8        1.0  0.9247464154038596  0.8305729913109045  0.9270935409112682  1.0000
  C   C9        1.0  0.6176805955554809  0.9040880409498823  0.42082712258674976  1.0000
  C   C10       1.0  0.38231940425951083  0.09591196017866502  0.9208271228118077  1.0000
  C   C11       1.0  0.11768059564798508  0.09591196017866502  0.42082712258674976  1.0000
  C   C12       1.0  0.8823194041670067  0.9040880409498823  0.9208271228118077  1.0000
  C   C13       1.0  0.6358034008464349  0.10933863598713853  0.5214604723022119  1.0000
  C   C14       1.0  0.36419659928179066  0.8906613651414088  0.02146047311083415  1.0000
  C   C15       1.0  0.1358034006257052  0.8906613651414088  0.5214604723022119  1.0000
  C   C16       1.0  0.8641965991892865  0.10933863598713853  0.02146047311083415  1.0000
  C   C17       1.0  0.6105977077879532  0.24097200572823507  0.6265989897464186  1.0000
  C   C18       1.0  0.3894022920270386  0.7590279954003122  0.12659898952136067  1.0000
  C   C19       1.0  0.1105977078804573  0.7590279954003122  0.6265989897464186  1.0000
  C   C20       1.0  0.8894022922477683  0.24097200572823507  0.12659898952136067  1.0000
  C   C21       1.0  0.5683530243556403  0.16502369829953104  0.6325811943915309  1.0000
  C   C22       1.0  0.4316469757725854  0.8349763003608588  0.13258119520015307  1.0000
  C   C23       1.0  0.06835302413491057  0.8349763003608588  0.6325811943915309  1.0000
  C   C24       1.0  0.9316469756800813  0.16502369829953104  0.13258119520015307  1.0000
  C   C25       1.0  0.5054939229821657  0.8612056054942314  0.5399800354968386  1.0000
  C   C26       1.0  0.4945060768328261  0.1387943956343159  0.039980035271780706  1.0000
  C   C27       1.0  0.005493923074669767  0.1387943956343159  0.5399800354968386  1.0000
  C   C28       1.0  0.9945060770535559  0.8612056054942314  0.039980035271780706  1.0000
  C   C29       1.0  0.3476929879459511  0.4294561633955379  0.4928347703719323  1.0000
  C   C30       1.0  0.6523070121822746  0.5705438377330094  0.9928347705969902  1.0000
  C   C31       1.0  0.847692987853447  0.5705438377330094  0.4928347703719323  1.0000
  C   C32       1.0  0.15230701227477866  0.4294561633955379  0.9928347705969902  1.0000
  C   C33       1.0  0.31433383385194896  0.5544075445353577  0.5747288120011222  1.0000
  C   C34       1.0  0.6856661659630428  0.4455924565931896  0.07472881177606434  1.0000
  C   C35       1.0  0.8143338340726788  0.4455924565931896  0.5747288120011222  1.0000
  C   C36       1.0  0.18566616605554692  0.5544075445353577  0.07472881177606434  1.0000
  C   C37       1.0  0.27282452553251946  0.4889045069542562  0.53863744935572  1.0000
  C   C38       1.0  0.7271754745957062  0.5110954941742911  0.038637449130662055  1.0000
  C   C39       1.0  0.7728245254400153  0.5110954941742911  0.53863744935572  1.0000
  C   C40       1.0  0.2271754746882103  0.4889045069542562  0.038637449130662055  1.0000
  C   C41       1.0  0.26394596439514917  0.30515312281393203  0.4194906217205899  1.0000
  C   C42       1.0  0.7360540354198426  0.6948468758464577  0.9194906219456479  1.0000
  C   C43       1.0  0.763945964302645  0.6948468758464577  0.4194906217205899  1.0000
  C   C44       1.0  0.23605403551234674  0.30515312281393203  0.9194906219456479  1.0000
  C   C45       1.0  0.29678864844091846  0.17159539234493823  0.33981320894277245  1.0000
  C   C46       1.0  0.7032113516873073  0.8284046063154514  0.8398132091678303  1.0000
  C   C47       1.0  0.7967886483484142  0.8284046063154514  0.33981320894277245  1.0000
  C   C48       1.0  0.20321135146657748  0.17159539234493823  0.8398132091678303  1.0000
  C   C49       1.0  0.33778480761773266  0.23507527378823925  0.3770405002618459  1.0000
  C   C50       1.0  0.662215192510493  0.7649247273403081  0.8770405004869039  1.0000
  C   C51       1.0  0.8377848075252285  0.7649247273403081  0.3770405002618459  1.0000
  C   C52       1.0  0.1622151922897632  0.23507527378823925  0.8770405004869039  1.0000
  C   C53       1.0  0.3907422188690254  0.5242734389387853  0.5243885645847369  1.0000
  C   C54       1.0  0.6092577809459664  0.47572656218976195  0.024388564359678937  1.0000
  C   C55       1.0  0.8907422187765213  0.47572656218976195  0.5243885645847369  1.0000
  C   C56       1.0  0.10925778103847054  0.5242734389387853  0.024388564359678937  1.0000
  N   N1        1.0  0.4839950074209503  0.9139349479612435  0.6564823392873872  1.0000
  N   N2        1.0  0.5160049923940415  0.08606505069914616  0.15648233906232928  1.0000
  N   N3        1.0  0.98399500764168  0.08606505069914616  0.6564823392873872  1.0000
  N   N4        1.0  0.01600499248654558  0.9139349479612435  0.15648233906232928  1.0000
  N   N5        1.0  0.22215251535662092  0.2505963293565673  0.3813737597482643  1.0000
  N   N6        1.0  0.7778474847716047  0.74940367177198  0.8813737589396422  1.0000
  N   N7        1.0  0.7221525152641168  0.74940367177198  0.3813737597482643  1.0000
  N   N8        1.0  0.277847484550875  0.2505963293565673  0.8813737589396422  1.0000
  O   O1        1.0  0.4883456700523588  0.724653659326748  0.4353026913441293  1.0000
  O   O2        1.0  0.5116543297626329  0.2753463393336418  0.9353026915691871  1.0000
  O   O3        1.0  0.9883456699598547  0.2753463393336418  0.4353026913441293  1.0000
  O   O4        1.0  0.011654329855137058  0.724653659326748  0.9353026915691871  1.0000
  O   O5        1.0  0.6771286635867151  0.19146874261508187  0.5219967610618095  1.0000
  O   O6        1.0  0.3228713362282767  0.8085312560453078  0.02199676083675159  1.0000
  O   O7        1.0  0.17712866367921923  0.8085312560453078  0.5219967610618095  1.0000
  O   O8        1.0  0.8228713361357726  0.19146874261508187  0.02199676083675159  1.0000
  O   O9        1.0  0.39906785705190356  0.6952773990338471  0.6307993830892359  1.0000
  O   O10       1.0  0.600932143076322  0.30472259962654263  0.13079938389785822  1.0000
  O   O11       1.0  0.8990678569593995  0.30472259962654263  0.6307993830892359  1.0000
  O   O12       1.0  0.10093214316882618  0.6952773990338471  0.13079938389785822  1.0000
  O   O13       1.0  0.4196010011373877  0.43136686533962376  0.4358110397296592  1.0000
  O   O14       1.0  0.5803989986776041  0.568633133320766  0.935811039954717  1.0000
  O   O15       1.0  0.9196010010448835  0.568633133320766  0.4358110397296592  1.0000
  O   O16       1.0  0.08039899877010821  0.43136686533962376  0.935811039954717  1.0000
  O   O17       1.0  0.32215161779775436  0.7414282624903821  0.6877970195101637  1.0000
  O   O18       1.0  0.6778483820172373  0.25857173617000767  0.18779702031878598  1.0000
  O   O19       1.0  0.8221516177052504  0.25857173617000767  0.6877970195101637  1.0000
  O   O20       1.0  0.1778483821097415  0.7414282624903821  0.18779702031878598  1.0000
