data_image0
_chemical_formula_structural       H46C52O18F12P2S4Br2
_chemical_formula_sum              "H46 C52 O18 F12 P2 S4 Br2"
_cell_length_a       9.170362399284159
_cell_length_b       11.347443105684196
_cell_length_c       15.505519630749058
_cell_angle_alpha    75.89400151165684
_cell_angle_beta     76.18339562624968
_cell_angle_gamma    83.38915025503931

_space_group_name_H-M_alt    "P 1"
_space_group_IT_number       1

loop_
  _space_group_symop_operation_xyz
  'x, y, z'

loop_
  _atom_site_type_symbol
  _atom_site_label
  _atom_site_symmetry_multiplicity
  _atom_site_fract_x
  _atom_site_fract_y
  _atom_site_fract_z
  _atom_site_occupancy
  H   H1        1.0  0.5174318031182323  0.22717342066536886  0.23188570402666212  1.0000
  H   H2        1.0  0.48256819612632346  0.772826579100251  0.7681142956226011  1.0000
  H   H3        1.0  0.5963398935169018  0.08582141209772294  0.3434167194700451  1.0000
  H   H4        1.0  0.40366010657504753  0.9141785874665876  0.6565832808589923  1.0000
  H   H5        1.0  0.40629047150383857  0.13640172838584805  0.37903467841757826  1.0000
  H   H6        1.0  0.5937095285881108  0.8635982711784626  0.620965321911459  1.0000
  H   H7        1.0  0.30330988925074115  0.8762176690470912  0.19031097037508543  1.0000
  H   H8        1.0  0.6966901107167566  0.1237823314050829  0.8096890299515646  1.0000
  H   H9        1.0  0.1392500757134878  0.10675630116170295  0.29098280682575417  1.0000
  H   H10       1.0  0.8607499246222758  0.8932436986035537  0.709017192821799  1.0000
  H   H11       1.0  0.745518885512449  0.9709629281821406  0.27285969883780126  1.0000
  H   H12       1.0  0.2544811148233145  0.029037071583115998  0.727140300809752  1.0000
  H   H13       1.0  0.41283131673187035  0.7264179685194879  0.27648566553607307  1.0000
  H   H14       1.0  0.5871686836038932  0.27358203124576874  0.7235143341114803  1.0000
  H   H15       1.0  0.1991923450485292  0.9986028690457278  0.9257789655198433  1.0000
  H   H16       1.0  0.8008076552872344  0.00139713071952894  0.07422103412770995  1.0000
  H   H17       1.0  0.3090458497986498  0.7532827276683904  0.42212049277842634  1.0000
  H   H18       1.0  0.6909541502932995  0.2467172718959202  0.5778795075506109  1.0000
  H   H19       1.0  0.30236391239588145  0.1985191365262591  0.9081293309369941  1.0000
  H   H20       1.0  0.697636087696068  0.8014808630380514  0.09187066939204318  1.0000
  H   H21       1.0  0.8817129386654896  0.05556645967219947  0.3727056210955841  1.0000
  H   H22       1.0  0.11828706167027402  0.9444335400930572  0.627294378551969  1.0000
  H   H23       1.0  0.6165710578413294  0.5705680972375792  0.24460917506567453  1.0000
  H   H24       1.0  0.3834289421261683  0.4294319032145949  0.7553908252609756  1.0000
  H   H25       1.0  0.04804493401877857  0.6998911510468802  0.49863558228758303  1.0000
  H   H26       1.0  0.9519550660731709  0.3001088485174306  0.5013644180414543  1.0000
  H   H27       1.0  0.8820712651787433  0.6106449417675792  0.23178315866959975  1.0000
  H   H28       1.0  0.11792873491320624  0.3893550577967314  0.7682168416594375  1.0000
  H   H29       1.0  0.8349064047691754  0.848435921488868  0.4755873933480951  1.0000
  H   H30       1.0  0.16509359544213656  0.15156407916425207  0.5244126062970709  1.0000
  H   H31       1.0  0.945464854175638  0.8116194683628066  0.24644470027258342  1.0000
  H   H32       1.0  0.05453514616012571  0.1883805314024502  0.7535552993749697  1.0000
  H   H33       1.0  0.6064615049646378  0.3948798181853962  0.12724909324075878  1.0000
  H   H34       1.0  0.3935384941554664  0.6051201824680872  0.8727509064061171  1.0000
  H   H35       1.0  0.3581656589396789  0.9425423827082632  0.4971013387804166  1.0000
  H   H36       1.0  0.641834341271633  0.057457617944857056  0.5028986608647492  1.0000
  H   H37       1.0  0.5445982933091458  0.8850015595967229  0.46208300104219907  1.0000
  H   H38       1.0  0.45540170702661775  0.11499844016853386  0.5379169986053542  1.0000
  H   H39       1.0  0.4698942280003108  0.42537574706222775  0.9509167373400429  1.0000
  H   H40       1.0  0.5301057710004309  0.5746242525024462  0.04908326299070434  1.0000
  H   H41       1.0  0.7655318723841738  0.35972274973468893  0.37575940291013515  1.0000
  H   H42       1.0  0.23446812770777564  0.6402772498296218  0.6242405974189021  1.0000
  H   H43       1.0  0.5944726422372336  0.4332451392685214  0.4153322356851368  1.0000
  H   H44       1.0  0.4055273578547158  0.5667548602957891  0.5846677646439006  1.0000
  H   H45       1.0  0.7496082438075731  0.46128255065686885  0.4461735919625356  1.0000
  H   H46       1.0  0.25039175519316875  0.5387174489078048  0.5538264083682116  1.0000
  C   C1        1.0  0.4764558189118228  0.20306889429547975  0.17863114447955486  1.0000
  C   C2        1.0  0.5235441800889188  0.796931105269194  0.8213688558511923  1.0000
  C   C3        1.0  0.3642227187409948  0.06109887692708136  0.12098116543821616  1.0000
  C   C4        1.0  0.6357772801352952  0.938901123525456  0.8790188348901438  1.0000
  C   C5        1.0  0.3649804922423191  0.1523311011170574  0.03849819274935863  1.0000
  C   C6        1.0  0.6350195080934445  0.8476688986481993  0.9615018068981946  1.0000
  C   C7        1.0  0.2408588791234688  0.9327049477835883  0.35012698187635904  1.0000
  C   C8        1.0  0.7591411212122948  0.06729505198166831  0.6498730177711942  1.0000
  C   C9        1.0  0.48223962246978586  0.05495282919566885  0.3739591089535849  1.0000
  C   C10       1.0  0.5177603776221635  0.9450471703686418  0.6260408913754524  1.0000
  C   C11       1.0  0.42655392332700365  0.26631838170473  0.027097526963142105  1.0000
  C   C12       1.0  0.57344607700876  0.7336816180605267  0.9729024726844111  1.0000
  C   C13       1.0  0.47444381161206683  0.9692529090035245  0.467855592894015  1.0000
  C   C14       1.0  0.525556188599245  0.030747091649595697  0.5321444067511509  1.0000
  C   C15       1.0  0.420701456061768  0.08961921484514415  0.19157163710269148  1.0000
  C   C16       1.0  0.5792985439057295  0.9103807856070302  0.8084283632239584  1.0000
  C   C17       1.0  0.24855294157343305  0.927247621597262  0.059612720127291755  1.0000
  C   C18       1.0  0.7514470574273087  0.07275237796741182  0.9403872802034554  1.0000
  C   C19       1.0  0.5641668388287324  0.8586756493777984  0.27912159404066117  1.0000
  C   C20       1.0  0.4358331613825794  0.14132435127532192  0.7208784056045048  1.0000
  C   C21       1.0  0.3051239776387676  0.9478205723346538  0.12908693905172006  1.0000
  C   C22       1.0  0.6948760223287301  0.05217942811752032  0.87091306127493  1.0000
  C   C23       1.0  0.11977649450713297  0.017945282399403097  0.3370137618335712  1.0000
  C   C24       1.0  0.880223505704179  0.9820547182537173  0.6629862378115946  1.0000
  C   C25       1.0  0.4827836475709185  0.2901519475631006  0.09681471439481268  1.0000
  C   C26       1.0  0.5172163527648451  0.7098480522021562  0.9031852852527406  1.0000
  C   C27       1.0  0.7152943373002321  0.882295202434043  0.2696837263737063  1.0000
  C   C28       1.0  0.2847056630355317  0.11770479733121367  0.730316273273847  1.0000
  C   C29       1.0  0.5287685124097765  0.745904746094827  0.2703830719206445  1.0000
  C   C30       1.0  0.47123148780153545  0.2540952545582933  0.7296169277245214  1.0000
  C   C31       1.0  0.24575844977623784  0.017139617454025955  0.979086791077276  1.0000
  C   C32       1.0  0.7542415503157116  0.9828603821102847  0.02091320925176129  1.0000
  C   C33       1.0  0.21561089116642826  0.8187713368692363  0.4099893619882675  1.0000
  C   C34       1.0  0.7843891078343136  0.18122866269543747  0.5900106383424798  1.0000
  C   C35       1.0  0.3035968627929896  0.12766615136901704  0.9695136085851476  1.0000
  C   C36       1.0  0.6964031372989599  0.8723338481952936  0.030486391743889736  1.0000
  C   C37       1.0  0.974166309415417  0.9882355817758136  0.3830689888009997  1.0000
  C   C38       1.0  0.025833690795895013  0.011764418877306441  0.6169310108441662  1.0000
  C   C39       1.0  0.6437152320897306  0.6572501257790048  0.2530727613578388  1.0000
  C   C40       1.0  0.35628476812158144  0.3427498748741154  0.746927238287327  1.0000
  C   C41       1.0  0.06889259662388654  0.7893960602467796  0.4541987100231592  1.0000
  C   C42       1.0  0.9311074035874253  0.21060394040634053  0.5458012896220067  1.0000
  C   C43       1.0  0.7930334988185922  0.680162947940793  0.24536517515520773  1.0000
  C   C44       1.0  0.2069665015171715  0.3198370518244637  0.7546348244923454  1.0000
  C   C45       1.0  0.9484527938904018  0.8737366175812069  0.4408053565795105  1.0000
  C   C46       1.0  0.05154720620154738  0.1262633819831038  0.5591946437495269  1.0000
  C   C47       1.0  0.8288535614794577  0.7927532770900201  0.2535928921955902  1.0000
  C   C48       1.0  0.1711464386124918  0.20724672247429046  0.7464071081334471  1.0000
  C   C49       1.0  0.9984429225013149  0.354326248411867  0.1417589963060565  1.0000
  C   C50       1.0  0.0015570778344486916  0.6456737513533898  0.8582410033414968  1.0000
  C   C51       1.0  0.2122086221496642  0.4770197558087111  0.33452463594561815  1.0000
  C   C52       1.0  0.7877913770948918  0.522980243956909  0.6654753637036449  1.0000
  O   O1        1.0  0.5424914115554955  0.4003435107170436  0.08224075691456911  1.0000
  O   O2        1.0  0.457508588780268  0.5996564890482133  0.9177592427329841  1.0000
  O   O3        1.0  0.42843724762941326  0.34998252231329224  0.9484614590473954  1.0000
  O   O4        1.0  0.5715627523380845  0.6500174781388819  0.05153854127925457  1.0000
  O   O5        1.0  0.7050417723780295  0.3845382605219318  0.2051970045969804  1.0000
  O   O6        1.0  0.29495822771392005  0.6154617390423788  0.7948029957320569  1.0000
  O   O7        1.0  0.8166234310174365  0.17426684566378672  0.20770783965133746  1.0000
  O   O8        1.0  0.18337656931832705  0.82573315410147  0.7922921599962157  1.0000
  O   O9        1.0  0.8600981869968606  0.2883133839816955  0.3138997881760807  1.0000
  O   O10       1.0  0.139901813338903  0.7116866157835613  0.6861002114714725  1.0000
  O   O11       1.0  0.43651986739098286  0.4888737040761364  0.40917095560698763  1.0000
  O   O12       1.0  0.563480132820329  0.5111262965769838  0.5908290440381783  1.0000
  O   O13       1.0  0.19047734284668555  0.4502203458625157  0.5117006386373667  1.0000
  O   O14       1.0  0.8095226572452637  0.5497796537017949  0.48829936169167065  1.0000
  O   O15       1.0  0.3308106898597575  0.2890279743875054  0.4380394017233151  1.0000
  O   O16       1.0  0.6691893103515544  0.7109720262656147  0.5619605979218509  1.0000
  O   O17       1.0  0.6983617276657185  0.39924251446272435  0.4267261335335738  1.0000
  O   O18       1.0  0.3016382726700453  0.6007574853025326  0.5732738661139795  1.0000
  F   F1        1.0  0.12059093953933378  0.2835977109933372  0.1614029784354967  1.0000
  F   F2        1.0  0.8794090607964299  0.7164022887719196  0.8385970212120565  1.0000
  F   F3        1.0  0.016105876734964525  0.46957068433768157  0.14648452182112348  1.0000
  F   F4        1.0  0.9838941232325332  0.5304293161144924  0.8535154785055266  1.0000
  F   F5        1.0  0.9900905090687908  0.3554350163774215  0.0558832074314787  1.0000
  F   F6        1.0  0.009909491142521123  0.6445649842756987  0.944116792213687  1.0000
  F   F7        1.0  0.18063995181678663  0.5987284386479241  0.3213557561831087  1.0000
  F   F8        1.0  0.8193600482751628  0.40127156091638644  0.6786442441459286  1.0000
  F   F9        1.0  0.08261633662781474  0.4220753982561923  0.3483447732713133  1.0000
  F   F10       1.0  0.9173836634641348  0.5779246013081183  0.6516552270577239  1.0000
  F   F11       1.0  0.30632879450131584  0.4529075617253858  0.2583379914823249  1.0000
  F   F12       1.0  0.6936712054661819  0.5470924387267881  0.7416620088443251  1.0000
  P   P1        1.0  0.4265053243926929  0.9822912845760238  0.29606258099857163  1.0000
  P   P2        1.0  0.5734946756992566  0.017708714988286887  0.7039374193304656  1.0000
  S   S1        1.0  0.8260332486866176  0.2926004748109024  0.22468323165740203  1.0000
  S   S2        1.0  0.17396675128088016  0.7073995256412717  0.7753167686692479  1.0000
  S   S3        1.0  0.30203175170645147  0.4179729319458878  0.4341902396055509  1.0000
  S   S4        1.0  0.6979682483854981  0.5820270676184227  0.5658097607234864  1.0000
  Br  Br1       1.0  0.17183431731076643  0.7735492036608035  0.07203870568932245  1.0000
  Br  Br2       1.0  0.828165682781183  0.22645079590350722  0.9279612946397149  1.0000
