data_image0
_chemical_formula_structural       H40C80N4F16I8
_chemical_formula_sum              "H40 C80 N4 F16 I8"
_cell_length_a       4.192620856326138
_cell_length_b       20.122709865888954
_cell_length_c       20.818345510883557
_cell_angle_alpha    90.0
_cell_angle_beta     95.4289625079914
_cell_angle_gamma    90.0

_space_group_name_H-M_alt    "P 1"
_space_group_IT_number       1

loop_
  _space_group_symop_operation_xyz
  'x, y, z'

loop_
  _atom_site_type_symbol
  _atom_site_label
  _atom_site_symmetry_multiplicity
  _atom_site_fract_x
  _atom_site_fract_y
  _atom_site_fract_z
  _atom_site_occupancy
  H   H1        1.0  0.4446118356132568  0.48422645234862083  0.8657577933534083  1.0000
  H   H2        1.0  0.555388164846096  0.9842264522022947  0.6342422066706607  1.0000
  H   H3        1.0  0.5553881655740788  0.515773547855678  0.1342422067635733  1.0000
  H   H4        1.0  0.44461183634123963  0.015773547505053095  0.365757793446321  1.0000
  H   H5        1.0  0.5608909216261038  0.36483530294520194  0.8590216902516021  1.0000
  H   H6        1.0  0.43910907644687797  0.8648353027988758  0.6409783097697738  1.0000
  H   H7        1.0  0.4391090771748608  0.6351646972590969  0.14097830986268636  1.0000
  H   H8        1.0  0.5608909221407239  0.13516469690847202  0.35902168986201227  1.0000
  H   H9        1.0  0.3426328379082298  0.2848540856674911  0.9369324353006598  1.0000
  H   H10       1.0  0.6573671625511228  0.784854085521165  0.5630675647234091  1.0000
  H   H11       1.0  0.6573671632791056  0.7151459145368076  0.06306756481632177  1.0000
  H   H12       1.0  0.34263283624984175  0.21514591418618287  0.4369324353908794  1.0000
  H   H13       1.0  0.05127804057198585  0.3272237285079553  0.024740524011455132  1.0000
  H   H14       1.0  0.9487219589569617  0.8272237288585802  0.47525947619574593  1.0000
  H   H15       1.0  0.9487219606153495  0.6727762711993925  0.9752594761055263  1.0000
  H   H16       1.0  0.051278039844003  0.17277627134571866  0.5247405239185425  1.0000
  H   H17       1.0  0.6822590299833438  0.3632664292591823  0.07856717753333033  1.0000
  H   H18       1.0  0.3177409695456036  0.8632664291128562  0.4214328226738708  1.0000
  H   H19       1.0  0.31774096881762076  0.6367335709451165  0.9214328225809582  1.0000
  H   H20       1.0  0.682259029255361  0.13673357109144255  0.5785671774404177  1.0000
  H   H21       1.0  0.034072418501665265  0.4583415460178407  0.17715269942660244  1.0000
  H   H22       1.0  0.9659275808139196  0.9583415458715147  0.32284730029809616  1.0000
  H   H23       1.0  0.9659275824723077  0.5416584541864581  0.8228473002078768  1.0000
  H   H24       1.0  0.034072417987045106  0.041658453835833185  0.6771526998161923  1.0000
  H   H25       1.0  0.11536323399206971  0.4233891348024773  0.2848547953278285  1.0000
  H   H26       1.0  0.8846367679232487  0.9233891346561514  0.21514520488206573  1.0000
  H   H27       1.0  0.8846367671952658  0.5766108654018214  0.7151452047891532  1.0000
  H   H28       1.0  0.11536323326408679  0.07661086505119655  0.7848547952349157  1.0000
  H   H29       1.0  0.6883421541586251  0.2581420273223486  0.3573892125589185  1.0000
  H   H30       1.0  0.31165784515695966  0.7581420276729735  0.14261078716578016  1.0000
  H   H31       1.0  0.31165784702871047  0.7418579723849993  0.6426107875580631  1.0000
  H   H32       1.0  0.6883421534306422  0.24185797253132532  0.8573892124660059  1.0000
  H   H33       1.0  0.39914095853844744  0.23126883660380262  0.24876007504844447  1.0000
  H   H34       1.0  0.6008590409904999  0.7312688369544276  0.25123992515875665  1.0000
  H   H35       1.0  0.6008590426488881  0.7687311631035452  0.7512399250685371  1.0000
  H   H36       1.0  0.39914095781046455  0.2687311632498713  0.7487600749555318  1.0000
  H   H37       1.0  0.4788380518994149  0.30517653094078995  0.15554411032964366  1.0000
  H   H38       1.0  0.5211619500159035  0.8051765307944638  0.3444558898802506  1.0000
  H   H39       1.0  0.5211619492879206  0.6948234692635088  0.8444558897873379  1.0000
  H   H40       1.0  0.4788380511714321  0.19482346940983492  0.655544110236731  1.0000
  C   C1        1.0  0.1610046374135836  0.47614511533766174  0.9473451211232979  1.0000
  C   C2        1.0  0.838995363045769  0.9761451156882865  0.552654878900771  1.0000
  C   C3        1.0  0.838995361387381  0.5238548843696861  0.05265487899099048  1.0000
  C   C4        1.0  0.16100463792820377  0.023854884516012184  0.4473451207337082  1.0000
  C   C5        1.0  0.34455781171146094  0.4497567981806304  0.8988134446924083  1.0000
  C   C6        1.0  0.6554421887478917  0.9497567980343045  0.6011865553316607  1.0000
  C   C7        1.0  0.6554421870895036  0.5502432020236684  0.10118655542188024  1.0000
  C   C8        1.0  0.344557812226081  0.05024320216999442  0.3988134443028184  1.0000
  C   C9        1.0  0.40931263199531576  0.3828560229385218  0.8951243797319409  1.0000
  C   C10       1.0  0.590687366077666  0.8828560227921957  0.604875620289435  1.0000
  C   C11       1.0  0.5906873668056488  0.6171439772657771  0.10487562038234761  1.0000
  C   C12       1.0  0.4093126327232986  0.1171439774121031  0.3951243798248535  1.0000
  C   C13       1.0  0.29332344032061003  0.3379246128041115  0.9399266821978047  1.0000
  C   C14       1.0  0.7066765577523716  0.8379246126577854  0.5600733178235711  1.0000
  C   C15       1.0  0.7066765582669918  0.6620753874001872  0.06007331743398124  1.0000
  C   C16       1.0  0.293323441048593  0.16207538754651335  0.43992668229071746  1.0000
  C   C17       1.0  0.12865883135024736  0.3617619763201019  0.9890378294211455  1.0000
  C   C18       1.0  0.8713411691091053  0.8617619761737758  0.5109621706029236  1.0000
  C   C19       1.0  0.8713411698370882  0.6382380238841969  0.010962170695836252  1.0000
  C   C20       1.0  0.12865882969185918  0.13823802353357206  0.4890378295113649  1.0000
  C   C21       1.0  0.05861751852593702  0.430805104172138  0.9950822536708607  1.0000
  C   C22       1.0  0.9413824819334157  0.930805104025812  0.5049177463532083  1.0000
  C   C23       1.0  0.9413824802750275  0.5691948960321608  0.004917746443427787  1.0000
  C   C24       1.0  0.058617519040557196  0.06919489568153592  0.49508225328127087  1.0000
  C   C25       1.0  0.9024486116768657  0.45482754415272086  0.04796789318749416  1.0000
  C   C26       1.0  0.0975513900250901  0.9548275440063947  0.45203210653989767  1.0000
  C   C27       1.0  0.09755138951046989  0.5451724560515779  0.9520321069294875  1.0000
  C   C28       1.0  0.9024486109488828  0.04517245570095307  0.5479678930945815  1.0000
  C   C29       1.0  0.8113834193161078  0.4076903441273953  0.0966987724550732  1.0000
  C   C30       1.0  0.1886165802128396  0.9076903444780202  0.40330122775212796  1.0000
  C   C31       1.0  0.18861657948485672  0.5923096555799525  0.9033012276592153  1.0000
  C   C32       1.0  0.811383420974496  0.09230965572627864  0.5966987723648538  1.0000
  C   C33       1.0  0.8885199647607169  0.4153279049243397  0.16075030881994753  1.0000
  C   C34       1.0  0.11148003476823055  0.9153279047780135  0.3392496913872536  1.0000
  C   C35       1.0  0.11148003642661868  0.5846720952799591  0.8392496912970341  1.0000
  C   C36       1.0  0.8885199640327341  0.08467209492933422  0.660750308727035  1.0000
  C   C37       1.0  0.8104708115078055  0.3703197312719791  0.2117535573076879  1.0000
  C   C38       1.0  0.18952918802114194  0.870319731622604  0.2882464428995132  1.0000
  C   C39       1.0  0.18952918729315898  0.6296802684353687  0.7882464428066004  1.0000
  C   C40       1.0  0.8104708131661935  0.12968026858169485  0.7117535572174684  1.0000
  C   C41       1.0  0.9542808141340737  0.3812199818576032  0.274760724637067  1.0000
  C   C42       1.0  0.04571918539487377  0.881219981711277  0.2252392755701341  1.0000
  C   C43       1.0  0.04571918466689092  0.6187800183466956  0.7252392754772216  1.0000
  C   C44       1.0  0.9542808134060908  0.11878001799607073  0.7747607245441543  1.0000
  C   C45       1.0  0.716153327107729  0.2888029509311453  0.3150265499502494  1.0000
  C   C46       1.0  0.28384667242121847  0.7888029507848191  0.18497345025695172  1.0000
  C   C47       1.0  0.28384667169323563  0.7111970492731535  0.6849734501640391  1.0000
  C   C48       1.0  0.7161533263797459  0.21119704892252866  0.8150265498573367  1.0000
  C   C49       1.0  0.5579744884273976  0.2741166715001147  0.2546757158060156  1.0000
  C   C50       1.0  0.44202551088818715  0.7741166718507396  0.24532428391868308  1.0000
  C   C51       1.0  0.4420255125465753  0.7258833282072331  0.7453242838284636  1.0000
  C   C52       1.0  0.5579744879127775  0.22588332835355918  0.7546757161956055  1.0000
  C   C53       1.0  0.6036087513923564  0.31538676014795464  0.20281068631480975  1.0000
  C   C54       1.0  0.3963912503095993  0.8153867604985795  0.29718931341258203  1.0000
  C   C55       1.0  0.3963912495816164  0.6846132395593932  0.7971893133196694  1.0000
  C   C56       1.0  0.6036087508777361  0.18461323970571927  0.7028106867043995  1.0000
  C   C57       1.0  0.4601116886034652  0.3774421164256284  0.5353614262638297  1.0000
  C   C58       1.0  0.5398883118558875  0.8774421167762533  0.9646385737602394  1.0000
  C   C59       1.0  0.5398883101974994  0.6225578832817195  0.4646385738504589  1.0000
  C   C60       1.0  0.4601116891180853  0.12255788342804552  0.03536142587423977  1.0000
  C   C61       1.0  0.4277502163491801  0.43541536594196356  0.5709290251702844  1.0000
  C   C62       1.0  0.5722497841101726  0.9354153657956374  0.9290709748537846  1.0000
  C   C63       1.0  0.5722497846247927  0.5645846342623352  0.4290709744641948  1.0000
  C   C64       1.0  0.42775021707716293  0.0645846344086613  0.07092902526319701  1.0000
  C   C65       1.0  0.5832012741625792  0.44331655922356616  0.6326315291717247  1.0000
  C   C66       1.0  0.4167987262967735  0.943316559574191  0.8673684708523444  1.0000
  C   C67       1.0  0.41679872702475634  0.5566834404837816  0.36736847094525693  1.0000
  C   C68       1.0  0.5832012722908284  0.056683440630107745  0.13263152877944173  1.0000
  C   C69       1.0  0.7830322306183699  0.3936670723175508  0.6606266903808411  1.0000
  C   C70       1.0  0.21696776984098282  0.8936670726681757  0.8393733096432281  1.0000
  C   C71       1.0  0.2169677681825946  0.606332927389797  0.3393733097334474  1.0000
  C   C72       1.0  0.7830322313463528  0.10633292753612311  0.1606266904737537  1.0000
  C   C73       1.0  0.8230710357038719  0.3362993520803837  0.6246152143424807  1.0000
  C   C74       1.0  0.1769289647554808  0.8362993524310086  0.8753847856815883  1.0000
  C   C75       1.0  0.176928965270101  0.6637006476269641  0.3753847852919985  1.0000
  C   C76       1.0  0.8230710340454838  0.16370064777329021  0.12461521443270021  1.0000
  C   C77       1.0  0.6589700232257703  0.32802445217327597  0.5638866769482841  1.0000
  C   C78       1.0  0.34102997484721154  0.8280244520269499  0.9361133230730918  1.0000
  C   C79       1.0  0.3410299755751943  0.6719755480310228  0.43611332316600443  1.0000
  C   C80       1.0  0.658970023953753  0.17197554817734892  0.06388667704119674  1.0000
  N   N1        1.0  0.9090610580039816  0.3417553538183062  0.3247053524489497  1.0000
  N   N2        1.0  0.09093894131160318  0.841755354168931  0.17529464727574892  1.0000
  N   N3        1.0  0.09093894058362027  0.6582446458890416  0.6752946471828363  1.0000
  N   N4        1.0  0.9090610598757324  0.15824464603536775  0.8247053528412327  1.0000
  F   F1        1.0  0.2379299727818069  0.48541881213315824  0.5467551984666879  1.0000
  F   F2        1.0  0.7620700276775458  0.985418812483783  0.9532448015573812  1.0000
  F   F3        1.0  0.7620700284055286  0.5145811875741896  0.45324480165029374  1.0000
  F   F4        1.0  0.2379299711234188  0.014581187720515691  0.04675519855690739  1.0000
  F   F5        1.0  0.5336375324392674  0.4999285397963763  0.665585528716556  1.0000
  F   F6        1.0  0.4663624680200853  0.9999285401470012  0.8344144713075129  1.0000
  F   F7        1.0  0.4663624687480682  0.5000714599109716  0.3344144714004256  1.0000
  F   F8        1.0  0.5336375331672503  7.146005729762954e-05  0.16558552880946867  1.0000
  F   F9        1.0  0.02427413124826397  0.28732839406491034  0.6483324156569106  1.0000
  F   F10       1.0  0.9757258692110888  0.7873283939185842  0.8516675843671585  1.0000
  F   F11       1.0  0.9757258699390715  0.7126716061393884  0.351667584460071  1.0000
  F   F12       1.0  0.024274131976246865  0.2126716057887636  0.14833241574982323  1.0000
  F   F13       1.0  0.6973546928002704  0.26947862669292855  0.5328876981310607  1.0000
  F   F14       1.0  0.3026453076590823  0.7694786270435534  0.9671123018930082  1.0000
  F   F15       1.0  0.3026453060006942  0.7305213730144193  0.46711230198322773  1.0000
  F   F16       1.0  0.6973546933148905  0.2305213731607454  0.03288769774147092  1.0000
  I   I1        1.0  0.21691109267901876  0.36429531752214417  0.44190282860844365  1.0000
  I   I2        1.0  0.7830889068499286  0.8642953173758181  0.058097171598757526  1.0000
  I   I3        1.0  0.7830889061219457  0.6357046821852036  0.5580971715058448  1.0000
  I   I4        1.0  0.21691109433740688  0.13570468233152974  0.9419028285182242  1.0000
  I   I5        1.0  0.004335890200300333  0.4032145761716751  0.7546009324589471  1.0000
  I   I6        1.0  0.9956641100456897  0.903214576025349  0.7453990670826194  1.0000
  I   I7        1.0  0.9956641107736726  0.5967854240326237  0.2453990671755321  1.0000
  I   I8        1.0  0.004335888541912198  0.09678542368199881  0.25460093254916655  1.0000
