data_image0
_chemical_formula_structural       H46C40N8O8S4
_chemical_formula_sum              "H46 C40 N8 O8 S4"
_cell_length_a       8.816424655493915
_cell_length_b       9.84901660487408
_cell_length_c       12.6683131741564
_cell_angle_alpha    84.4356938611276
_cell_angle_beta     78.07695038563124
_cell_angle_gamma    79.46597800248996

_space_group_name_H-M_alt    "P 1"
_space_group_IT_number       1

loop_
  _space_group_symop_operation_xyz
  'x, y, z'

loop_
  _atom_site_type_symbol
  _atom_site_label
  _atom_site_symmetry_multiplicity
  _atom_site_fract_x
  _atom_site_fract_y
  _atom_site_fract_z
  _atom_site_occupancy
  H   H1        1.0  0.8912555155722647  0.4534657098518492  0.062032011236008745  1.0000
  H   H2        1.0  0.1087444842427916  0.546534290932506  0.9379679887036606  1.0000
  H   H3        1.0  0.8584439246948106  0.457116357804441  0.3385249376279541  1.0000
  H   H4        1.0  0.14155607531439432  0.5428836419452308  0.6614750623583017  1.0000
  H   H5        1.0  0.8100865066410249  0.7096805680239817  0.3079185462178008  1.0000
  H   H6        1.0  0.18991349336170396  0.29031943172111935  0.6920814545590783  1.0000
  H   H7        1.0  0.49935242337865077  0.9421050089472333  0.415707824125311  1.0000
  H   H8        1.0  0.5006475766305541  0.05789499080243855  0.584292175860945  1.0000
  H   H9        1.0  0.6097098835337741  0.11102811152979017  0.14221645567890623  1.0000
  H   H10       1.0  0.3902901164754307  0.8889718882198816  0.8577835443073496  1.0000
  H   H11       1.0  0.4339631188482814  0.13339897275057674  0.2423484036875662  1.0000
  H   H12       1.0  0.5660368811609235  0.8666010269990949  0.7576515962986897  1.0000
  H   H13       1.0  0.6153956398895095  0.15265617753623378  0.2751342084496785  1.0000
  H   H14       1.0  0.38460436011969557  0.8473438222134377  0.7248657915365775  1.0000
  H   H15       1.0  0.4430453586455086  0.3458420919835385  0.11417342114320134  1.0000
  H   H16       1.0  0.5569546411695476  0.6541579088008166  0.8858265787964682  1.0000
  H   H17       1.0  0.4519024123443628  0.38512192058876105  0.24676515048283962  1.0000
  H   H18       1.0  0.5480975876648422  0.6148780791609108  0.7532348495034162  1.0000
  H   H19       1.0  0.2257390584734476  0.37730252124060176  0.35534697439379487  1.0000
  H   H20       1.0  0.7742609415357573  0.62269747850907  0.6446530255924611  1.0000
  H   H21       1.0  0.38545211285542647  0.4834250534642951  0.456524492522607  1.0000
  H   H22       1.0  0.6145478871537785  0.5165749462853766  0.5434755074636487  1.0000
  H   H23       1.0  0.28718475793219617  0.7239468750244308  0.517055569765253  1.0000
  H   H24       1.0  0.7128152418828602  0.27605312575992447  0.48294443017441635  1.0000
  H   H25       1.0  0.03553881594044219  0.8534812676632388  0.4791572293297011  1.0000
  H   H26       1.0  0.9644611840687629  0.1465187320864328  0.5208427706565547  1.0000
  H   H27       1.0  0.23287364894246074  0.7987826371844279  0.22733928044024124  1.0000
  H   H28       1.0  0.7671263520322388  0.20121736359775552  0.7726607193378517  1.0000
  H   H29       1.0  0.40257055167357636  0.6670480789594837  0.21472171901905437  1.0000
  H   H30       1.0  0.5974294483356287  0.33295192079018804  0.7852782809672014  1.0000
  H   H31       1.0  0.3777290648563146  0.9446987735998826  0.07862485294882296  1.0000
  H   H32       1.0  0.6222709349587418  0.05530122718447241  0.9213751469908465  1.0000
  H   H33       1.0  0.3575690586482587  0.7838726830850473  0.03520773917554703  1.0000
  H   H34       1.0  0.6424309411667976  0.21612731769930785  0.9647922607641225  1.0000
  H   H35       1.0  0.5421506548436049  0.8063385098127573  0.06164949814940188  1.0000
  H   H36       1.0  0.4578493449714515  0.1936614909715978  0.9383505017902676  1.0000
  H   H37       1.0  0.888673073854739  0.9109233289656224  0.17311123618575314  1.0000
  H   H38       1.0  0.11132692615446582  0.08907667078404921  0.8268887638005027  1.0000
  H   H39       1.0  0.9550725074791004  0.014574587902515578  0.32266037367434774  1.0000
  H   H40       1.0  0.044927492530104605  0.9854254118471562  0.677339626311908  1.0000
  H   H41       1.0  0.12915480587840716  0.19170878809976563  0.2863737573626987  1.0000
  H   H42       1.0  0.8708451939366493  0.8082912126845896  0.7136262425769707  1.0000
  H   H43       1.0  0.22998688665756747  0.27006855747501246  0.0942925894584402  1.0000
  H   H44       1.0  0.7700131133516375  0.7299314422746592  0.9057074105278156  1.0000
  H   H45       1.0  0.16207499426273872  0.17104424549788785  0.94492742519994  1.0000
  H   H46       1.0  0.8379250057464661  0.8289557542517839  0.055072574786315914  1.0000
  C   C1        1.0  0.5455688027866733  0.17091764367837897  0.2112232293499313  1.0000
  C   C2        1.0  0.45443119722253167  0.8290823560712927  0.7887767706363246  1.0000
  C   C3        1.0  0.5123143196150232  0.3234567889963455  0.17818138873646175  1.0000
  C   C4        1.0  0.4876856802000333  0.6765432117880096  0.8218186112032078  1.0000
  C   C5        1.0  0.7374739035789344  0.4079097922340354  0.20142329117517788  1.0000
  C   C6        1.0  0.26252609643027064  0.5920902075156362  0.798576708811078  1.0000
  C   C7        1.0  0.9796755191531747  0.5043119943512457  0.18966196266476879  1.0000
  C   C8        1.0  0.02032448085603034  0.4956880053984259  0.8103380373214871  1.0000
  C   C9        1.0  0.047151912862000746  0.5561959913830133  0.3574520428216556  1.0000
  C   C10       1.0  0.9528480871407279  0.44380400836208755  0.6425479579552235  1.0000
  C   C11       1.0  0.18738953219989535  0.4823562892303355  0.3814740651859065  1.0000
  C   C12       1.0  0.8126104678093097  0.517643710519336  0.6185259348003493  1.0000
  C   C13       1.0  0.27477274962453546  0.541645471586175  0.43919843753684124  1.0000
  C   C14       1.0  0.7252272503846696  0.4583545281634967  0.5608015624494146  1.0000
  C   C15       1.0  0.21989178564809939  0.6756774430034553  0.47289018077582445  1.0000
  C   C16       1.0  0.780108214166957  0.3243225577808998  0.527109819163845  1.0000
  C   C17       1.0  0.07721990295198071  0.749466503575988  0.45222018006965636  1.0000
  C   C18       1.0  0.9227800970572243  0.2505334961736838  0.5477798199165996  1.0000
  C   C19       1.0  0.9883464917756204  0.6898072060998836  0.39527624864858873  1.0000
  C   C20       1.0  0.01165350822710829  0.3101927936452174  0.6047237521282904  1.0000
  C   C21       1.0  0.7287310795590097  0.8485978836705687  0.418968319692034  1.0000
  C   C22       1.0  0.27126892045019524  0.1514021160791032  0.5810316802942218  1.0000
  C   C23       1.0  0.562513957812592  0.8065155865813335  0.2933384587050545  1.0000
  C   C24       1.0  0.4374860421966131  0.19348441316833812  0.7066615412812014  1.0000
  C   C25       1.0  0.3608821947772826  0.7782595899133354  0.20250765464420709  1.0000
  C   C26       1.0  0.6391178050377738  0.22174041087101962  0.7974923452954623  1.0000
  C   C27       1.0  0.41424226689532617  0.8322797465937593  0.08765479835577554  1.0000
  C   C28       1.0  0.5857577329197302  0.16772025419059575  0.912345201583894  1.0000
  C   C29       1.0  0.9635743681512264  0.9898229955023847  0.15410031870678942  1.0000
  C   C30       1.0  0.03642563185797869  0.010177004247286986  0.8458996812794664  1.0000
  C   C31       1.0  0.001722161627212663  0.047566734988808854  0.23944472366290837  1.0000
  C   C32       1.0  0.9982778383819922  0.9524332647608629  0.7605552763233474  1.0000
  C   C33       1.0  0.09933933582904139  0.14764952087910363  0.21909051520313122  1.0000
  C   C34       1.0  0.9006606641801637  0.852350478870568  0.7809094847831247  1.0000
  C   C35       1.0  0.15652769751912576  0.18983636587511715  0.11210963896419632  1.0000
  C   C36       1.0  0.8434723024900792  0.8101636338745546  0.8878903610220596  1.0000
  C   C37       1.0  0.11686001610521447  0.1332788236941515  0.0269228428397367  1.0000
  C   C38       1.0  0.8831399839039906  0.8667211760555203  0.9730771571465191  1.0000
  C   C39       1.0  0.020217529005319604  0.030861269582778253  0.04551849527471852  1.0000
  C   C40       1.0  0.9797824708097367  0.9691387312015768  0.954481504664951  1.0000
  N   N1        1.0  0.8724944992797256  0.45330102561775143  0.14591146856922363  1.0000
  N   N2        1.0  0.1275055007294794  0.5466989741319203  0.8540885314170322  1.0000
  N   N3        1.0  0.9570476455558777  0.4968269575860779  0.29868123030707333  1.0000
  N   N4        1.0  0.042952354259178656  0.5031730431982773  0.7013187696325961  1.0000
  N   N5        1.0  0.8440731950496936  0.7531643721525255  0.3689981956555356  1.0000
  N   N6        1.0  0.15592680495951128  0.24683562759714617  0.6310018043307203  1.0000
  N   N7        1.0  0.5925971388713519  0.8724146236924926  0.3765696168126112  1.0000
  N   N8        1.0  0.40740286113785296  0.12758537605717915  0.6234303831736446  1.0000
  O   O1        1.0  0.6952825431986357  0.39848405836916895  0.300591258358819  1.0000
  O   O2        1.0  0.30471745661642063  0.6015159424151862  0.6994087415808504  1.0000
  O   O3        1.0  0.6570160745200407  0.3762302991637443  0.13036280895847874  1.0000
  O   O4        1.0  0.34298392548916434  0.6237697005859274  0.8696371910277771  1.0000
  O   O5        1.0  0.6585807626990269  0.7197252206812293  0.23890608639852298  1.0000
  O   O6        1.0  0.3414192373101781  0.2802747790684424  0.7610939135877329  1.0000
  O   O7        1.0  0.4144370657751989  0.8500951499552637  0.28071882261814846  1.0000
  O   O8        1.0  0.5855629340398576  0.14990485082909133  0.719281177321521  1.0000
  S   S1        1.0  0.1264311114443222  0.5715353908524591  0.1084321822650771  1.0000
  S   S2        1.0  0.8735688885648829  0.4284646088972126  0.8915678177211788  1.0000
  S   S3        1.0  0.7352249683006404  0.9359358386158948  0.5245505581653359  1.0000
  S   S4        1.0  0.2647750317085645  0.0640641611337771  0.47544944182091997  1.0000
