data_image0
_chemical_formula_structural       H6C14N6F4Br4I2
_chemical_formula_sum              "H6 C14 N6 F4 Br4 I2"
_cell_length_a       5.596833639170914
_cell_length_b       9.80138757556377
_cell_length_c       10.435778732469732
_cell_angle_alpha    100.52771029288282
_cell_angle_beta     104.30506642391993
_cell_angle_gamma    93.30746979534908

_space_group_name_H-M_alt    "P 1"
_space_group_IT_number       1

loop_
  _space_group_symop_operation_xyz
  'x, y, z'

loop_
  _atom_site_type_symbol
  _atom_site_label
  _atom_site_symmetry_multiplicity
  _atom_site_fract_x
  _atom_site_fract_y
  _atom_site_fract_z
  _atom_site_occupancy
  H   H1        1.0  0.4376420043445207  0.9229775440924444  0.37974143784186104  1.0000
  H   H2        1.0  0.5623579961545915  0.07702245489710026  0.6202585616280198  1.0000
  H   H3        1.0  0.1987628343780858  0.8961457920282309  0.22675543231787093  1.0000
  H   H4        1.0  0.8012371667059076  0.10385420819856554  0.7732445681586189  1.0000
  H   H5        1.0  0.24755778811707574  0.2879723794562249  0.6577402594565046  1.0000
  H   H6        1.0  0.7524422129669177  0.7120276207705716  0.3422597410199851  1.0000
  C   C1        1.0  0.17074207970343258  0.42282835206318015  0.07543575690068512  1.0000
  C   C2        1.0  0.8292579209036214  0.5771716479475963  0.924564242565765  1.0000
  C   C3        1.0  0.9345101978423407  0.3623011567316643  0.9999663782806416  1.0000
  C   C4        1.0  0.06548980276471335  0.6376988432791122  3.3621185808360474e-05  1.0000
  C   C5        1.0  0.2326888817709189  0.5621582046815946  0.07326226604330859  1.0000
  C   C6        1.0  0.7673111170470243  0.43784179533157025  0.9267377334173502  1.0000
  C   C7        1.0  0.9190283040602171  0.08366066602021288  0.31030031377633116  1.0000
  C   C8        1.0  0.08097169523466563  0.9163393342089721  0.6896996866943673  1.0000
  C   C9        1.0  0.15700999437202606  0.0501884960259696  0.3778744451774637  1.0000
  C   C10       1.0  0.8429900049228567  0.9498115042032155  0.622125555293235  1.0000
  C   C11       1.0  0.15497971733471932  0.2290832104547771  0.5567768974718593  1.0000
  C   C12       1.0  0.845020283749274  0.7709167897720194  0.4432231030046304  1.0000
  C   C13       1.0  0.9268433976924411  0.2607890028584429  0.48613945906997025  1.0000
  C   C14       1.0  0.07315660112550221  0.7392109971547219  0.5138605403906886  1.0000
  N   N1        1.0  0.8101547768928848  0.18662417995114752  0.36335190628483083  1.0000
  N   N2        1.0  0.1898452224019979  0.8133758202780375  0.6366480941858678  1.0000
  N   N3        1.0  0.27268907297168804  0.9476954557416087  0.32331620043897563  1.0000
  N   N4        1.0  0.727310925846255  0.05230454427155593  0.6766837990216832  1.0000
  N   N5        1.0  0.26697787868277306  0.12488031913402556  0.5033066759927605  1.0000
  N   N6        1.0  0.7330221205041678  0.8751196800739276  0.49669332448136905  1.0000
  F   F1        1.0  0.8619930050430523  0.22674288235970752  0.9958506381099707  1.0000
  F   F2        1.0  0.13800699425183033  0.7732571178694774  0.00414936236072789  1.0000
  F   F3        1.0  0.45992553967688  0.6280716428172868  0.14325928070805435  1.0000
  F   F4        1.0  0.5400744596180027  0.37192835741189817  0.8567407197626443  1.0000
  Br  Br1       1.0  0.7485415124852103  0.9695766786289504  0.14015867646881486  1.0000
  Br  Br2       1.0  0.2514584863327329  0.030423321384214504  0.859841322991844  1.0000
  Br  Br3       1.0  0.7701077370772079  0.40688889462954275  0.5677785424508272  1.0000
  Br  Br4       1.0  0.22989226174073518  0.5931111053836222  0.4322214570098317  1.0000
  I   I1        1.0  0.4189480651183352  0.31232683618736706  0.1921809329818778  1.0000
  I   I2        1.0  0.581051933699608  0.6876731638257978  0.8078190664787811  1.0000
