data_image0
_chemical_formula_structural       H64C68N24O24
_chemical_formula_sum              "H64 C68 N24 O24"
_cell_length_a       13.78909394449768
_cell_length_b       6.93284341371388
_cell_length_c       17.64033041156664
_cell_angle_alpha    90.0
_cell_angle_beta     100.39477386875896
_cell_angle_gamma    90.0

_space_group_name_H-M_alt    "P 1"
_space_group_IT_number       1

loop_
  _space_group_symop_operation_xyz
  'x, y, z'

loop_
  _atom_site_type_symbol
  _atom_site_label
  _atom_site_symmetry_multiplicity
  _atom_site_fract_x
  _atom_site_fract_y
  _atom_site_fract_z
  _atom_site_occupancy
  H   H1        1.0  0.5371099908679299  0.54195080514407  0.27822157608747417  1.0000
  H   H2        1.0  0.9628900087136809  0.04195080613312161  0.22177842405748766  1.0000
  H   H3        1.0  0.4628900091423896  0.4580491943202364  0.7217784241172515  1.0000
  H   H4        1.0  0.03710999129663845  0.9580491947735943  0.778221576147238  1.0000
  H   H5        1.0  0.4354376267701805  0.6605484397558031  0.04171333875144213  1.0000
  H   H6        1.0  0.06456237360363112  0.1605484393024452  0.4582866614016013  1.0000
  H   H7        1.0  0.564562373240139  0.33945156115091274  0.9582866614532835  1.0000
  H   H8        1.0  0.9354376264066883  0.8394515601618612  0.5417133388031242  1.0000
  H   H9        1.0  0.17083650280083224  0.4905146931882437  0.25071440536060624  1.0000
  H   H10       1.0  0.32916349757297936  0.9905146936416017  0.24928559479243728  1.0000
  H   H11       1.0  0.8291634972094872  0.5094853062760627  0.7492855948441194  1.0000
  H   H12       1.0  0.6708365024373402  0.009485307265114287  0.7507144054122883  1.0000
  H   H13       1.0  0.7225622600117187  0.712133753119807  0.05229273126495293  1.0000
  H   H14       1.0  0.7774377403071959  0.21213375266644896  0.44770726898137025  1.0000
  H   H15       1.0  0.2774377399986007  0.287866247786909  0.9477072689397728  1.0000
  H   H16       1.0  0.22256225970312363  0.7878662467978573  0.5522927312233553  1.0000
  H   H17       1.0  0.6584128522891513  0.06264144508744317  0.25855079095469735  1.0000
  H   H18       1.0  0.8415871480263472  0.5626414455408012  0.24144920872426734  1.0000
  H   H19       1.0  0.341587147717752  0.9373585543768631  0.7414492086826697  1.0000
  H   H20       1.0  0.15841285198055602  0.43735855392350526  0.7585507909130997  1.0000
  H   H21       1.0  0.5106108559563882  0.9779697975852504  0.31225273516551655  1.0000
  H   H22       1.0  0.9893891436218063  0.47796979857430205  0.1877472644120868  1.0000
  H   H23       1.0  0.4893891440505149  0.022030201879055925  0.6877472644718505  1.0000
  H   H24       1.0  0.010610856385096847  0.5220302023324139  0.8122527352252803  1.0000
  H   H25       1.0  0.3248037169731663  0.06448697068732771  0.10308829836031949  1.0000
  H   H26       1.0  0.1751962826633416  0.5644869711406857  0.39691170169136264  1.0000
  H   H27       1.0  0.6751962830371532  0.9355130287769787  0.8969117018444062  1.0000
  H   H28       1.0  0.8248037173435615  0.4355130297660303  0.6030882979460044  1.0000
  H   H29       1.0  0.46638562238324927  0.151831678170864  0.037824092763566186  1.0000
  H   H30       1.0  0.033614377253258595  0.651831678624222  0.4621759072881159  1.0000
  H   H31       1.0  0.5336143776270701  0.8481683212934423  0.9621759074411594  1.0000
  H   H32       1.0  0.9663856227570609  0.34816832228249395  0.5378240929166097  1.0000
  H   H33       1.0  0.8062289926097724  0.23216089762191558  0.12420012603014144  1.0000
  H   H34       1.0  0.6937710069718385  0.7321608980752735  0.37579987411482046  1.0000
  H   H35       1.0  0.1937710074005471  0.7678391018423908  0.8757998741745842  1.0000
  H   H36       1.0  0.3062289930384809  0.26783910283144235  0.6242001260899052  1.0000
  H   H37       1.0  0.7624799253390812  0.16601311342519523  0.20849363983877278  1.0000
  H   H38       1.0  0.7375200749764173  0.6660131138785532  0.29150635984019196  1.0000
  H   H39       1.0  0.2375200746678221  0.8339868860391111  0.7915063597985943  1.0000
  H   H40       1.0  0.26247992503048595  0.3339868870281627  0.7084936397971753  1.0000
  H   H41       1.0  0.9193264451058227  0.6566012670927269  0.8918011573229055  1.0000
  H   H42       1.0  0.5806735552783082  0.1566012666393689  0.6081988430348635  1.0000
  H   H43       1.0  0.08067355490449667  0.34339873381398905  0.10819884288182006  1.0000
  H   H44       1.0  0.4193264447320112  0.8433987328249374  0.3918011571698621  1.0000
  H   H45       1.0  0.751029316550637  0.6214086303288022  0.9279604138570383  1.0000
  H   H46       1.0  0.7489706838300777  0.12140862987544426  0.5720395859333722  1.0000
  H   H47       1.0  0.2489706834562662  0.37859136913550406  0.07203958578032879  1.0000
  H   H48       1.0  0.2510293161768254  0.8785913695888621  0.42796041370399485  1.0000
  H   H49       1.0  0.8525921326028709  0.825331161912803  0.14806458703341527  1.0000
  H   H50       1.0  0.64740786697874  0.32533116145944496  0.35193541311154664  1.0000
  H   H51       1.0  0.1474078674074486  0.17466883755150342  0.8519354131713104  1.0000
  H   H52       1.0  0.35259213303157944  0.6746688380048614  0.648064587093179  1.0000
  H   H53       1.0  0.028064297390247933  0.8553986245050863  0.12376291190310906  1.0000
  H   H54       1.0  0.4719357022428437  0.3553986240517283  0.37623708758121455  1.0000
  H   H55       1.0  0.9719357026166553  0.14460137495922004  0.876237087734258  1.0000
  H   H56       1.0  0.5280642977640595  0.644601375412578  0.6237629120561526  1.0000
  H   H57       1.0  0.2337902928986923  0.7912262274883085  0.017141028914321264  1.0000
  H   H58       1.0  0.2662097074717031  0.2912262284773601  0.4828589706713637  1.0000
  H   H59       1.0  0.766209707108211  0.20877377197599783  0.9828589707230457  1.0000
  H   H60       1.0  0.7337902925352001  0.7087737724293558  0.5171410289660034  1.0000
  H   H61       1.0  0.16392951471869865  0.8468673673468756  0.08876196915424654  1.0000
  H   H62       1.0  0.336070485655113  0.3468673683359273  0.41123803099879697  1.0000
  H   H63       1.0  0.8360704852916209  0.1531326321174307  0.9112380310504792  1.0000
  H   H64       1.0  0.6639295143517903  0.6531326325707887  0.5887619686385702  1.0000
  C   C1        1.0  0.6233518789984805  0.6512389723196382  0.13582309750527044  1.0000
  C   C2        1.0  0.8766481213170179  0.15123897330868988  0.3641769021736942  1.0000
  C   C3        1.0  0.37664812100842265  0.3487610271446681  0.8641769021320965  1.0000
  C   C4        1.0  0.12335187868988541  0.8487610275980261  0.6358230974636728  1.0000
  C   C5        1.0  0.5246977215186639  0.6056240087140213  0.15346281673190887  1.0000
  C   C6        1.0  0.9753022788002508  0.10562400970307291  0.3465371835144143  1.0000
  C   C7        1.0  0.47530227849165546  0.39437599075028507  0.8465371834728167  1.0000
  C   C8        1.0  0.024697721210068798  0.894375991203643  0.6534628166903113  1.0000
  C   C9        1.0  0.49259900872644985  0.5560683546341383  0.22136018166129626  1.0000
  C   C10       1.0  0.0074009909100579835  0.056068355623189944  0.2786398183903859  1.0000
  C   C11       1.0  0.5074009912804532  0.443931644830168  0.7786398179760708  1.0000
  C   C12       1.0  0.9925990091002614  0.943931645283526  0.7213601818143397  1.0000
  C   C13       1.0  0.3894093561070859  0.5375369552741206  0.20015268913696602  1.0000
  C   C14       1.0  0.11059064352942204  0.03753695482076268  0.29984731091471617  1.0000
  C   C15       1.0  0.6105906439032336  0.4624630456325953  0.7998473110677596  1.0000
  C   C16       1.0  0.8894093564774811  0.9624630446435436  0.7001526887226509  1.0000
  C   C17       1.0  0.31605972458992987  0.4964134532726132  0.2493638752326996  1.0000
  C   C18       1.0  0.18394027504657795  0.9964134537259712  0.2506361248189825  1.0000
  C   C19       1.0  0.6839402754203895  0.5035865461916931  0.750636124972026  1.0000
  C   C20       1.0  0.8160597249637415  0.003586547180744703  0.7493638753857431  1.0000
  C   C21       1.0  0.6600061600829583  0.16860663659123598  0.10502344806764276  1.0000
  C   C22       1.0  0.8399938394952364  0.668606637044594  0.3949765515099606  1.0000
  C   C23       1.0  0.33999383992394494  0.8313933628730703  0.8949765515697243  1.0000
  C   C24       1.0  0.16000616051166686  0.331393363862122  0.6050234481274066  1.0000
  C   C25       1.0  0.574363819270557  0.11654026086926769  0.14304951332414761  1.0000
  C   C26       1.0  0.9256361810483575  0.6165402613226256  0.35695048692217557  1.0000
  C   C27       1.0  0.42563618073976245  0.8834597385950387  0.8569504868805781  1.0000
  C   C28       1.0  0.07436381896196188  0.38345973814168066  0.6430495132825501  1.0000
  C   C29       1.0  0.5863274065188198  0.06729740918092732  0.22122804909339377  1.0000
  C   C30       1.0  0.913672593059375  0.5672974096342853  0.27877195048420955  1.0000
  C   C31       1.0  0.4136725934880835  0.9327025902833791  0.7787719505439734  1.0000
  C   C32       1.0  0.08632740694752827  0.432702589830021  0.7212280491531575  1.0000
  C   C33       1.0  0.5034511430414159  0.0210131833804046  0.2520415834281118  1.0000
  C   C34       1.0  0.9965488572774988  0.5210131838337626  0.24795841681821143  1.0000
  C   C35       1.0  0.49654885696890366  0.9789868160839018  0.7479584167766138  1.0000
  C   C36       1.0  0.003451142732820697  0.4789868170729534  0.7520415833865142  1.0000
  C   C37       1.0  0.4003544760501583  0.06820093744865209  0.13469502966463917  1.0000
  C   C38       1.0  0.09964552358634958  0.5682009379020101  0.365304970387043  1.0000
  C   C39       1.0  0.5996455239601612  0.9317990620156542  0.8653049705400865  1.0000
  C   C40       1.0  0.9003544764239698  0.4317990630047059  0.6346950298176827  1.0000
  C   C41       1.0  0.47926286195301726  0.11530152814626805  0.09890060992221648  1.0000
  C   C42       1.0  0.02073713841737806  0.615301528599626  0.4010993896634685  1.0000
  C   C43       1.0  0.5207371380538859  0.8846984713180384  0.9010993897151506  1.0000
  C   C44       1.0  0.979262861589525  0.38469847086468034  0.5989006099738986  1.0000
  C   C45       1.0  0.08689493403022702  0.7516667230204179  0.9822873512981107  1.0000
  C   C46       1.0  0.4131050656714973  0.25166672256705996  0.5177126488650176  1.0000
  C   C47       1.0  0.9131050659800924  0.248333277886298  0.01771264890661509  1.0000
  C   C48       1.0  0.5868949343388221  0.7483332768972464  0.482287351339708  1.0000
  C   C49       1.0  0.9867267865466537  0.7532868331728818  0.005322442209850708  1.0000
  C   C50       1.0  0.5132732130349573  0.2532868327195238  0.4946775579351112  1.0000
  C   C51       1.0  0.013273213463665839  0.24671316629142453  0.9946775579948749  1.0000
  C   C52       1.0  0.4867267869753622  0.7467131667447825  0.5053224422696144  1.0000
  C   C53       1.0  0.9075119018777871  0.6939228167887977  0.9491654081624235  1.0000
  C   C54       1.0  0.5924880985063439  0.19392281633543976  0.5508345921953456  1.0000
  C   C55       1.0  0.0924880981325324  0.30607718411791823  0.05083459204230211  1.0000
  C   C56       1.0  0.4075119015039754  0.8060771831288666  0.44916540800938004  1.0000
  C   C57       1.0  0.8142833604390787  0.6799259969835142  0.9675222825679916  1.0000
  C   C58       1.0  0.6857166392077486  0.17992599653015623  0.5324777176884163  1.0000
  C   C59       1.0  0.1857166395712407  0.32007400392320173  0.03247771763673418  1.0000
  C   C60       1.0  0.3142833608025709  0.8200740043765598  0.46752228251630923  1.0000
  C   C61       1.0  0.8735564465503942  0.7907309646076832  0.09299165458829133  1.0000
  C   C62       1.0  0.626443553765104  0.2907309655967349  0.40700834509067335  1.0000
  C   C63       1.0  0.12644355345650887  0.20926903485662313  0.9070083450490757  1.0000
  C   C64       1.0  0.3735564462417992  0.7092690353099811  0.5929916545466938  1.0000
  C   C65       1.0  0.9690292489641572  0.8042229453749067  0.07851952606794889  1.0000
  C   C66       1.0  0.5309707513513412  0.3042229463639584  0.42148047361101576  1.0000
  C   C67       1.0  0.030970751042746054  0.19577705408939958  0.9214804735694181  1.0000
  C   C68       1.0  0.469029248655562  0.6957770545427576  0.5785195260263514  1.0000
  N   N1        1.0  0.4420343204783829  0.6129226835838312  0.09774022449342314  1.0000
  N   N2        1.0  0.05796567915812489  0.1129226831304731  0.40225977555825904  1.0000
  N   N3        1.0  0.5579656795319364  0.3870773158804752  0.9022597757113024  1.0000
  N   N4        1.0  0.9420343208521946  0.8870773163338332  0.5977402246464666  1.0000
  N   N5        1.0  0.359822503056817  0.5743122630065394  0.1240155435106043  1.0000
  N   N6        1.0  0.14017749731699458  0.07431226255318137  0.3759844566424392  1.0000
  N   N7        1.0  0.6401774969500862  0.42568773790017667  0.8759844561267628  1.0000
  N   N8        1.0  0.8598225026933248  0.9256877369111249  0.6240155435622865  1.0000
  N   N9        1.0  0.7487951977072165  0.18230653781965853  0.14952849177050512  1.0000
  N   N10       1.0  0.751204801870978  0.6823065368306068  0.35047150780709824  1.0000
  N   N11       1.0  0.2512048022996866  0.8176934630870575  0.850471507866862  1.0000
  N   N12       1.0  0.24879519813592516  0.31769346263369946  0.6495284918302688  1.0000
  N   N13       1.0  0.41207146791404053  0.022673728601608857  0.20975434060009207  1.0000
  N   N14       1.0  0.08792853171905113  0.5226737290549669  0.29024565888423154  1.0000
  N   N15       1.0  0.5879285320928628  0.9773262708626974  0.7902456590372751  1.0000
  N   N16       1.0  0.9120714682878521  0.47732627185174914  0.7097543407531355  1.0000
  N   N17       1.0  0.16596974431183867  0.8041648999271755  0.03340728429648518  1.0000
  N   N18       1.0  0.33403025606197295  0.3041648994738175  0.4665927158565583  1.0000
  N   N19       1.0  0.8340302556950646  0.19583509953713088  0.9665927153408819  1.0000
  N   N20       1.0  0.6659697439483465  0.6958350999904888  0.5334072843481673  1.0000
  N   N21       1.0  0.7995143217005399  0.7283081758362044  0.03831569019139576  1.0000
  N   N22       1.0  0.700485677881071  0.2283081753828464  0.4616843099535662  1.0000
  N   N23       1.0  0.20048567830977948  0.2716918250705116  0.9616843100133299  1.0000
  N   N24       1.0  0.2995143221292485  0.7716918255238696  0.5383156902511594  1.0000
  O   O1        1.0  0.6248593328332728  0.6877952487095926  0.06451599376580522  1.0000
  O   O2        1.0  0.8751406674856418  0.18779524825623473  0.435484006480518  1.0000
  O   O3        1.0  0.3751406671770466  0.31220475219712324  0.9354840064389205  1.0000
  O   O4        1.0  0.12485933252467772  0.8122047512080717  0.5645159937242077  1.0000
  O   O5        1.0  0.6972802084391698  0.6532636192303466  0.1893250359083825  1.0000
  O   O6        1.0  0.802719791142441  0.15326361877698855  0.31067496423657937  1.0000
  O   O7        1.0  0.3027197915711496  0.34673638167636944  0.8106749642963431  1.0000
  O   O8        1.0  0.19728020886787845  0.8467363821297273  0.6893250359681462  1.0000
  O   O9        1.0  0.2247410114810429  0.48495486618800404  0.2120089471809128  1.0000
  O   O10       1.0  0.27525898815546496  0.9849548651989524  0.2879910528707693  1.0000
  O   O11       1.0  0.7752589885292765  0.5150451347187119  0.7879910530238129  1.0000
  O   O12       1.0  0.7247410118548545  0.01504513426535393  0.7120089473339563  1.0000
  O   O13       1.0  0.34115854140297486  0.47881254658566524  0.32054777005480756  1.0000
  O   O14       1.0  0.15884145823353302  0.9788125470390233  0.17945222999687457  1.0000
  O   O15       1.0  0.6588414586073447  0.5211874528786411  0.6794522301499181  1.0000
  O   O16       1.0  0.8411585417767865  0.021187453867692697  0.8205477702078511  1.0000
  O   O17       1.0  0.6467705676276322  0.1973871019923884  0.033323928095823116  1.0000
  O   O18       1.0  0.8532294326912825  0.6973871024457464  0.46667607215050005  1.0000
  O   O19       1.0  0.35322943238268734  0.8026128989143275  0.9666760721089025  1.0000
  O   O20       1.0  0.146770567319037  0.30261289846096956  0.5333239280542256  1.0000
  O   O21       1.0  0.0918685595906892  0.6972672064737191  0.9151728494762985  1.0000
  O   O22       1.0  0.40813144010761887  0.19726720602036116  0.584827150119471  1.0000
  O   O23       1.0  0.9081314396823266  0.30273279443299683  0.08482715062706571  1.0000
  O   O24       1.0  0.5918685598992843  0.8027327934439451  0.4151728495178962  1.0000
