data_image0
_chemical_formula_structural       H52C64N12O16
_chemical_formula_sum              "H52 C64 N12 O16"
_cell_length_a       9.750603082294019
_cell_length_b       11.3112800973463
_cell_length_c       12.412597742575299
_cell_angle_alpha    90.0
_cell_angle_beta     92.42773626008932
_cell_angle_gamma    90.0

_space_group_name_H-M_alt    "P 1"
_space_group_IT_number       1

loop_
  _space_group_symop_operation_xyz
  'x, y, z'

loop_
  _atom_site_type_symbol
  _atom_site_label
  _atom_site_symmetry_multiplicity
  _atom_site_fract_x
  _atom_site_fract_y
  _atom_site_fract_z
  _atom_site_occupancy
  H   H1        1.0  0.3767974076292787  0.9491406063332067  0.10852016921114037  1.0000
  H   H2        1.0  0.12320259222068237  0.4491406062159034  0.3914798314400007  1.0000
  H   H3        1.0  0.6232025920892985  0.05085939390139986  0.8914798312862623  1.0000
  H   H4        1.0  0.8767974074978949  0.5508593940187031  0.6085201690574021  1.0000
  H   H5        1.0  0.605493524148574  0.9136392177596703  0.318748980509667  1.0000
  H   H6        1.0  0.8945064755442287  0.413639217642367  0.18125101940601848  1.0000
  H   H7        1.0  0.3945064755886582  0.0863607824749363  0.6812510191828564  1.0000
  H   H8        1.0  0.10549352419300363  0.5863607825922396  0.8187489802865048  1.0000
  H   H9        1.0  0.7942959844511538  0.9451340845593685  0.4556021678323584  1.0000
  H   H10       1.0  0.7057040162679783  0.44513408444206526  0.04439783213211936  1.0000
  H   H11       1.0  0.20570401629375276  0.054865915675238006  0.5443978327138366  1.0000
  H   H12       1.0  0.2942959844955834  0.5548659157925413  0.9556021676091963  1.0000
  H   H13       1.0  0.9635627565224952  0.2259501778759421  0.5029137084933812  1.0000
  H   H14       1.0  0.5364372440910274  0.7259501779932455  0.9970862918990754  1.0000
  H   H15       1.0  0.03643724422241126  0.7740498223586644  0.4970862920528137  1.0000
  H   H16       1.0  0.4635627556275498  0.2740498222413612  0.0029137085983273257  1.0000
  H   H17       1.0  0.9420749527131692  0.08552250158025448  0.5441259690822629  1.0000
  H   H18       1.0  0.5579250468926792  0.5855225016975577  0.9558740304565221  1.0000
  H   H19       1.0  0.05792504702406306  0.9144774986543521  0.45587403061026055  1.0000
  H   H20       1.0  0.4420749528445531  0.4144774985370488  0.04412596923600117  1.0000
  H   H21       1.0  0.8561765259966017  0.2954827739421043  0.3292471568463626  1.0000
  H   H22       1.0  0.6438234747225304  0.7954827740594076  0.1707528431181152  1.0000
  H   H23       1.0  0.14382347474830492  0.7045172262925024  0.6707528436998325  1.0000
  H   H24       1.0  0.3561765260410312  0.20451722617519902  0.8292471566232005  1.0000
  H   H25       1.0  0.6617592935118114  0.26449690435142664  0.19592950660045083  1.0000
  H   H26       1.0  0.8382407072073208  0.76449690446873  0.3040704933640269  1.0000
  H   H27       1.0  0.33824070723309535  0.7355030958831799  0.804070493945744  1.0000
  H   H28       1.0  0.16175929355624086  0.23550309576587664  0.6959295063772887  1.0000
  H   H29       1.0  0.7917394036743355  0.23420475642023128  0.9090811024232578  1.0000
  H   H30       1.0  0.7082605959315129  0.7342047565375347  0.5909188971155271  1.0000
  H   H31       1.0  0.2082605960628968  0.7657952438143752  0.09091889726926547  1.0000
  H   H32       1.0  0.29173940380571933  0.26579524369707197  0.40908110257699615  1.0000
  H   H33       1.0  0.7193413227068167  0.9063678152930922  0.04135537784072031  1.0000
  H   H34       1.0  0.780658676985986  0.4063678160598621  0.4586446220749652  1.0000
  H   H35       1.0  0.2806586770304155  0.09363218405744118  0.9586446218518031  1.0000
  H   H36       1.0  0.21934132275124626  0.5936321841747444  0.5413553776175583  1.0000
  H   H37       1.0  0.9137890669621204  0.9257344358802168  0.17550500281059064  1.0000
  H   H38       1.0  0.5862109327306824  0.4257344357629135  0.32449499710509483  1.0000
  H   H39       1.0  0.08621093277511191  0.07426556435438979  0.8244949968819327  1.0000
  H   H40       1.0  0.4137890669878948  0.5742655644716931  0.6755050033923079  1.0000
  H   H41       1.0  0.25712106128830053  0.24581905549773542  0.2268648426238472  1.0000
  H   H42       1.0  0.24287893858031565  0.7458190556150388  0.27313515722241444  1.0000
  H   H43       1.0  0.7428789394752612  0.754180943852798  0.7731351571174684  1.0000
  H   H44       1.0  0.7571210611569167  0.25418094373549466  0.726864842470109  1.0000
  H   H45       1.0  0.18660393298300684  0.3947388228011009  0.09044421328270334  1.0000
  H   H46       1.0  0.3133960668856093  0.8947388229184042  0.40955578656355834  1.0000
  H   H47       1.0  0.8133960667355703  0.6052611774335057  0.9095557872146993  1.0000
  H   H48       1.0  0.686603932851623  0.10526117731620241  0.590444213128965  1.0000
  H   H49       1.0  0.9840200078100936  0.35539884835343455  0.965224499289017  1.0000
  H   H50       1.0  0.5159799928034292  0.8553988484707378  0.5347755011034396  1.0000
  H   H51       1.0  0.015979992934813142  0.644601151881172  0.03477550125717799  1.0000
  H   H52       1.0  0.4840200079414774  0.14460115176386873  0.4652244994427553  1.0000
  C   C1        1.0  0.6190826281915125  0.08711863215474495  0.24897286756112563  1.0000
  C   C2        1.0  0.8809173714826353  0.5871186322720482  0.2510271331594392  1.0000
  C   C3        1.0  0.3809173715270647  0.9128813680798615  0.751027132936277  1.0000
  C   C4        1.0  0.11908262823594211  0.41288136796255837  0.7489728673379634  1.0000
  C   C5        1.0  0.5085892291769656  0.06621045925435996  0.16654861462235698  1.0000
  C   C6        1.0  0.9914107705158371  0.56621045848759  0.33345138529332846  1.0000
  C   C7        1.0  0.49141077054161153  0.9337895409802467  0.8334513858750457  1.0000
  C   C8        1.0  0.008589229221395179  0.43378954086294336  0.6665486143991949  1.0000
  C   C9        1.0  0.6596723935065607  0.9975691126813534  0.32220363710634664  1.0000
  C   C10       1.0  0.840327606186242  0.49756911256405  0.1777963628093389  1.0000
  C   C11       1.0  0.34032760623067154  0.0024308875532532206  0.6777963625861766  1.0000
  C   C12       1.0  0.15967239355099025  0.5024308876705565  0.8222036368831845  1.0000
  C   C13       1.0  0.7658154365559959  0.014651024337986242  0.3979831005528899  1.0000
  C   C14       1.0  0.7341845641444812  0.5146510235712163  0.10201690021646724  1.0000
  C   C15       1.0  0.23418456418891073  0.9853489758966203  0.6020168999933051  1.0000
  C   C16       1.0  0.26581543660042545  0.48534897577931707  0.8979831003297277  1.0000
  C   C17       1.0  0.836806123771388  0.1236756404191775  0.40368769007921795  1.0000
  C   C18       1.0  0.6631938759214147  0.6236756405364808  0.09631230983646763  1.0000
  C   C19       1.0  0.16319387596584423  0.876324359815429  0.5963123096133055  1.0000
  C   C20       1.0  0.3368061237971625  0.37632435969812583  0.9036876906609351  1.0000
  C   C21       1.0  0.798483920669629  0.21283247247716852  0.3281896774062418  1.0000
  C   C22       1.0  0.7015160790231736  0.7128324725944718  0.17181032250944375  1.0000
  C   C23       1.0  0.20151607906760322  0.7871675277574381  0.6718103222862816  1.0000
  C   C24       1.0  0.2984839207140586  0.2871675276401348  0.8281896771830796  1.0000
  C   C25       1.0  0.6907633848071831  0.1949922237817673  0.2534261790174939  1.0000
  C   C26       1.0  0.8092366148856196  0.6949922238990706  0.24657382089819158  1.0000
  C   C27       1.0  0.3092366149300491  0.8050077764528394  0.7465738206750294  1.0000
  C   C28       1.0  0.1907633848329576  0.305007776335536  0.7534261795992111  1.0000
  C   C29       1.0  0.8225447809234675  0.16687248425956933  0.9683968569910174  1.0000
  C   C30       1.0  0.6774552186823807  0.6668724843768725  0.5316031425477676  1.0000
  C   C31       1.0  0.1774552188137646  0.8331275159750373  0.03160314270150595  1.0000
  C   C32       1.0  0.3225447810548515  0.333127515857734  0.4683968571447557  1.0000
  C   C33       1.0  0.7835102411803948  0.9852146418524694  0.04450400758684748  1.0000
  C   C34       1.0  0.716489758512408  0.48521464173516615  0.45549599232883803  1.0000
  C   C35       1.0  0.21648975855683755  0.01478535838213713  0.9554959921056758  1.0000
  C   C36       1.0  0.28351024122482427  0.5147853584994404  0.5445040073636853  1.0000
  C   C37       1.0  0.8924397281923201  0.9963457896020101  0.1183487073731048  1.0000
  C   C38       1.0  0.6075602715004828  0.4963457894847068  0.3816512925425807  1.0000
  C   C39       1.0  0.1075602715449122  0.003654210632596498  0.8816512923194186  1.0000
  C   C40       1.0  0.39243972821809453  0.5036542107498998  0.618348707954822  1.0000
  C   C41       1.0  0.09295243599240333  0.12638510386948937  0.18694855305808034  1.0000
  C   C42       1.0  0.4070475638762129  0.6263851039867927  0.31305144678818136  1.0000
  C   C43       1.0  0.907047563744829  0.8736148963651172  0.8130514466344431  1.0000
  C   C44       1.0  0.5929524358610195  0.3736148962478139  0.6869485529043421  1.0000
  C   C45       1.0  0.16642793115766077  0.2301869070160191  0.1750942815977726  1.0000
  C   C46       1.0  0.3335720687109554  0.7301869071333223  0.3249057182484891  1.0000
  C   C47       1.0  0.8335720695872458  0.7698130932185875  0.8249057189484224  1.0000
  C   C48       1.0  0.666427931026277  0.2698130931012842  0.6750942814440342  1.0000
  C   C49       1.0  0.1276620785071297  0.31370365594893856  0.09614837719912404  1.0000
  C   C50       1.0  0.37233792136148636  0.813703656066242  0.4038516226471377  1.0000
  C   C51       1.0  0.8723379212301026  0.686296344285668  0.9038516224933995  1.0000
  C   C52       1.0  0.6276620794020753  0.1862963441683647  0.596148377094178  1.0000
  C   C53       1.0  0.015256385362839991  0.29226464127394236  0.02807301295282549  1.0000
  C   C54       1.0  0.4847436155134506  0.7922646413912456  0.4719269877471078  1.0000
  C   C55       1.0  0.9847436153820667  0.7077353589606643  0.9719269875933695  1.0000
  C   C56       1.0  0.5152563852314561  0.20773535884336092  0.5280730127990872  1.0000
  C   C57       1.0  0.9382139873449541  0.18711632297891292  0.03843829324362042  1.0000
  C   C58       1.0  0.5617860123291937  0.6871163230962163  0.46156170747694436  1.0000
  C   C59       1.0  0.06178601237362326  0.8128836763716204  0.9615617072537823  1.0000
  C   C60       1.0  0.43821398738938344  0.3128836762543171  0.5384382930204583  1.0000
  C   C61       1.0  0.9752915619880024  0.09918033329076477  0.11817121118563384  1.0000
  C   C62       1.0  0.5247084387311297  0.5991803334080681  0.38182878877884396  1.0000
  C   C63       1.0  0.024708438775559307  0.9008196660597686  0.8818287885556818  1.0000
  C   C64       1.0  0.4752915620137769  0.4008196668265385  0.618171211767351  1.0000
  N   N1        1.0  0.9413383885003923  0.14107186509989816  0.47950297501581757  1.0000
  N   N2        1.0  0.5586616111924104  0.6410718652172015  0.020497024899867978  1.0000
  N   N3        1.0  0.05866161121818482  0.8589281351347084  0.5204970254815852  1.0000
  N   N4        1.0  0.44133838854482194  0.3589281350174051  0.9795029747926554  1.0000
  N   N5        1.0  0.7481142246225946  0.06934329476855731  0.9706564818670876  1.0000
  N   N6        1.0  0.7518857759909282  0.5693432948858607  0.529343518525369  1.0000
  N   N7        1.0  0.25188577614096713  0.9306567054660493  0.029343517874228  1.0000
  N   N8        1.0  0.24811422475397837  0.430656705348746  0.470656482020826  1.0000
  N   N9        1.0  0.14275233953118485  0.04801345252933957  0.27294717228532256  1.0000
  N   N10       1.0  0.3572476613637607  0.5480134526466429  0.2270528276097314  1.0000
  N   N11       1.0  0.8572476612323768  0.951986547705267  0.7270528274559932  1.0000
  N   N12       1.0  0.6427523393998009  0.45198654758796375  0.7729471721315843  1.0000
  O   O1        1.0  0.46697998575421285  0.1423160036835852  0.10063126148649085  1.0000
  O   O2        1.0  0.0330200141144033  0.6423160038008885  0.3993687383597708  1.0000
  O   O3        1.0  0.5330200139643644  0.8576839965510215  0.8993687390109119  1.0000
  O   O4        1.0  0.9669799866491584  0.35768399643371807  0.6006312613815448  1.0000
  O   O5        1.0  0.45711348703082566  0.9567851849534715  0.16779058439025854  1.0000
  O   O6        1.0  0.04288651281913541  0.4567851848361682  0.3322094162608825  1.0000
  O   O7        1.0  0.5428865126877515  0.04321481439706185  0.832209416107144  1.0000
  O   O8        1.0  0.9571134868994419  0.5432148145143652  0.6677905842365203  1.0000
  O   O9        1.0  0.09128833636927326  0.9474736323180885  0.280830229737524  1.0000
  O   O10       1.0  0.40871166349934285  0.4474736322007853  0.2191697701087377  1.0000
  O   O11       1.0  0.9087116633679589  0.05252636791651807  0.7191697699549994  1.0000
  O   O12       1.0  0.5912883372642188  0.5525263680338214  0.7808302296325779  1.0000
  O   O13       1.0  0.2356330408503585  0.08425273813381931  0.336790366880641  1.0000
  O   O14       1.0  0.26436696004458704  0.5842527382511226  0.16320963301441296  1.0000
  O   O15       1.0  0.7643669599132031  0.915747261216714  0.6632096328606747  1.0000
  O   O16       1.0  0.7356330407189747  0.41574726109941074  0.8367903667269027  1.0000
