data_image0
_chemical_formula_structural       H56C124O12F92P4S4
_chemical_formula_sum              "H56 C124 O12 F92 P4 S4"
_cell_length_a       11.47315618687385
_cell_length_b       19.253177458597225
_cell_length_c       15.872752590916969
_cell_angle_alpha    90.0
_cell_angle_beta     101.18781647766068
_cell_angle_gamma    90.0

_space_group_name_H-M_alt    "P 1"
_space_group_IT_number       1

loop_
  _space_group_symop_operation_xyz
  'x, y, z'

loop_
  _atom_site_type_symbol
  _atom_site_label
  _atom_site_symmetry_multiplicity
  _atom_site_fract_x
  _atom_site_fract_y
  _atom_site_fract_z
  _atom_site_occupancy
  H   H1        1.0  0.5498648649658717  0.5973991625400007  0.2567957015251186  1.0000
  H   H2        1.0  0.4501351354501685  0.09739916250357093  0.24320429859688064  1.0000
  H   H3        1.0  0.4501351347661436  0.40260083753285875  0.7432042984060201  1.0000
  H   H4        1.0  0.5498648651530383  0.9026008375692885  0.7567957013327458  1.0000
  H   H5        1.0  0.31589415908228197  0.4559024331893074  0.09502478988956138  1.0000
  H   H6        1.0  0.6841058413337582  0.9559024332257371  0.40497521023243777  1.0000
  H   H7        1.0  0.6841058415209247  0.544097566883552  0.904975210040065  1.0000
  H   H8        1.0  0.3158941583982572  0.044097566847122335  0.5950247896987009  1.0000
  H   H9        1.0  0.17457486856599386  0.5945738346107808  0.26350540670679967  1.0000
  H   H10       1.0  0.8254251318500462  0.09457383457435113  0.23649459341519952  1.0000
  H   H11       1.0  0.8254251320372128  0.4054261654620786  0.7364945932228267  1.0000
  H   H12       1.0  0.17457486788196905  0.9054261654985083  0.763505406515939  1.0000
  H   H13       1.0  0.33815351701610014  0.77190393388099  0.4601788070500323  1.0000
  H   H14       1.0  0.6618464833999401  0.2719039338445603  0.03982119307196693  1.0000
  H   H15       1.0  0.6618464837615473  0.22809606619186937  0.5398211935218071  1.0000
  H   H16       1.0  0.33815351633207524  0.728096066228299  0.9601788068591716  1.0000
  H   H17       1.0  0.11959073466213258  0.9092405727649414  0.28090113087228136  1.0000
  H   H18       1.0  0.8804092657539075  0.4092405727285117  0.21909886924971778  1.0000
  H   H19       1.0  0.8804092650698827  0.09075942730791799  0.7190988690588573  1.0000
  H   H20       1.0  0.11959073484929908  0.5907594273443477  0.7809011306799085  1.0000
  H   H21       1.0  0.2614741124788382  0.7235520921134739  0.18770261628533674  1.0000
  H   H22       1.0  0.7385258870660105  0.22355209259643907  0.3122973838381747  1.0000
  H   H23       1.0  0.738525887253177  0.27644790743999065  0.8122973836458018  1.0000
  H   H24       1.0  0.2614741126660048  0.7764479074764203  0.6877026160929638  1.0000
  H   H25       1.0  0.5517286988287841  0.7819942174416005  0.3805629298377674  1.0000
  H   H26       1.0  0.4482713015872561  0.28199421740517083  0.11943707028423177  1.0000
  H   H27       1.0  0.44827130090323125  0.2180057826312589  0.6194370700933711  1.0000
  H   H28       1.0  0.5517286990159506  0.7180057826676887  0.8805629296453946  1.0000
  H   H29       1.0  0.862910148357037  0.6802822457833556  0.5230033817280324  1.0000
  H   H30       1.0  0.1370898515621447  0.18028224574692595  0.9769966180107333  1.0000
  H   H31       1.0  0.1370898513749782  0.31971775377010897  0.4769966182031062  1.0000
  H   H32       1.0  0.8629101481698707  0.8197177538065387  0.023003381920405287  1.0000
  H   H33       1.0  0.5453985356336052  0.5616296646749881  0.43262535558147963  1.0000
  H   H34       1.0  0.454601464782435  0.06162966463855845  0.06737464454051953  1.0000
  H   H35       1.0  0.4546014640984102  0.43837033539787124  0.5673746443496589  1.0000
  H   H36       1.0  0.5453985359952124  0.9383703354343009  0.9326253560313199  1.0000
  H   H37       1.0  0.7761561026127378  0.6049263860495563  0.1910332264657994  1.0000
  H   H38       1.0  0.22384389693211107  0.10492638601312658  0.3089667736577121  1.0000
  H   H39       1.0  0.22384389711927757  0.3950736140233031  0.8089667734653392  1.0000
  H   H40       1.0  0.7761561027999042  0.8950736140597328  0.6910332262734266  1.0000
  H   H41       1.0  0.79945172156862  0.7334146719607921  0.19886167519377654  1.0000
  H   H42       1.0  0.2005482779762288  0.23341467192436235  0.3011383249297349  1.0000
  H   H43       1.0  0.2005482783378361  0.2665853281120673  0.8011383253795752  1.0000
  H   H44       1.0  0.7994517217557865  0.7665853281484971  0.6988616750014037  1.0000
  H   H45       1.0  0.9549810338442639  0.7866136097570381  0.3125330101867983  1.0000
  H   H46       1.0  0.0450189663973355  0.2866136097206084  0.18746698929298783  1.0000
  H   H47       1.0  0.045018966758942756  0.2133863903158213  0.687466989742828  1.0000
  H   H48       1.0  0.9549810333346799  0.713386390352251  0.8125330106381508  1.0000
  H   H49       1.0  0.08345844691951096  0.7110671123995066  0.4195349658851185  1.0000
  H   H50       1.0  0.9165415534965292  0.2110671123630769  0.08046503423688063  1.0000
  H   H51       1.0  0.9165415536836957  0.2889328876733528  0.5804650340445078  1.0000
  H   H52       1.0  0.08345844623548615  0.7889328871903877  0.9195349656942581  1.0000
  H   H53       1.0  0.056905859612786124  0.5820267835840356  0.41291722528520314  1.0000
  H   H54       1.0  0.9430941397576219  0.08202678354760591  0.0870827741960953  1.0000
  H   H55       1.0  0.9430941401192291  0.41797321648882374  0.5870827746459355  1.0000
  H   H56       1.0  0.0569058599743934  0.9179732165252534  0.9129172257350433  1.0000
  C   C1        1.0  0.36487278633060405  0.6002800028646315  0.2675675679489027  1.0000
  C   C2        1.0  0.6351272132142447  0.10028000282820175  0.23243243217460877  1.0000
  C   C3        1.0  0.6351272134014113  0.39971999720822793  0.732432431982236  1.0000
  C   C4        1.0  0.3648727865177706  0.8997199972446577  0.7675675677565298  1.0000
  C   C5        1.0  0.4619089824451819  0.5751777728021236  0.23538664917237093  1.0000
  C   C6        1.0  0.5380910177964175  0.07517777276569379  0.26461335030741523  1.0000
  C   C7        1.0  0.5380910181580247  0.4248222272707359  0.7646133507572554  1.0000
  C   C8        1.0  0.4619089819355978  0.9248222273071657  0.7353866496237235  1.0000
  C   C9        1.0  0.4430830508401663  0.5226422304390451  0.17410070725616872  1.0000
  C   C10       1.0  0.5569169495758739  0.022642230402615423  0.3258992928658304  1.0000
  C   C11       1.0  0.5569169497630404  0.47735776911441946  0.8258992926734576  1.0000
  C   C12       1.0  0.4430830501561414  0.9773577691508493  0.6741007070653081  1.0000
  C   C13       1.0  0.3294065539568469  0.49628832646183796  0.14384710622373978  1.0000
  C   C14       1.0  0.6705934455880018  0.9962883264982677  0.3561528938997716  1.0000
  C   C15       1.0  0.6705934459496091  0.5037116736110214  0.8561528943496118  1.0000
  C   C16       1.0  0.32940655414401343  0.0037116735745917053  0.643847106031367  1.0000
  C   C17       1.0  0.23319631125138113  0.5227017832065021  0.17569375135872525  1.0000
  C   C18       1.0  0.766803689164659  0.02270178317007241  0.3243062487632739  1.0000
  C   C19       1.0  0.7668036884806342  0.47729821686635726  0.8243062485724133  1.0000
  C   C20       1.0  0.23319631143854766  0.9772982169027871  0.6756937511663524  1.0000
  C   C21       1.0  0.24987181189369917  0.5745043021488828  0.23819427804259888  1.0000
  C   C22       1.0  0.7501281876511496  0.07450430211245312  0.2618057220809126  1.0000
  C   C23       1.0  0.750128188012757  0.42549569792397657  0.7618057225307528  1.0000
  C   C24       1.0  0.2498718120808657  0.9254956979604063  0.7381942778502261  1.0000
  C   C25       1.0  0.5475850754217368  0.49711153291875054  0.13833595397532555  1.0000
  C   C26       1.0  0.45241492412311196  0.9971115329551802  0.3616640461481858  1.0000
  C   C27       1.0  0.4524149244847192  0.5028884671541088  0.8616640465980261  1.0000
  C   C28       1.0  0.5475850756089035  0.0028884671176791755  0.6383359537829528  1.0000
  C   C29       1.0  0.10974482849800861  0.49460755194710715  0.14357219197769858  1.0000
  C   C30       1.0  0.8902551717435909  0.9946075519835369  0.3564278075020875  1.0000
  C   C31       1.0  0.8902551712340067  0.5053924476063574  0.85642780795344  1.0000
  C   C32       1.0  0.10974482885961588  0.005392448089322519  0.6435721924275388  1.0000
  C   C33       1.0  0.3060185200279953  0.7416947400348965  0.32523561953101376  1.0000
  C   C34       1.0  0.6939814803880449  0.2416947399984669  0.1747643805909854  1.0000
  C   C35       1.0  0.6939814805752114  0.2583052600379628  0.6747643803986125  1.0000
  C   C36       1.0  0.30601851951841114  0.7583052600743925  0.8252356199823663  1.0000
  C   C37       1.0  0.29571361428256565  0.7850802581809938  0.39425295722102977  1.0000
  C   C38       1.0  0.7042863861334744  0.2850802581445641  0.10574704290096942  1.0000
  C   C39       1.0  0.7042863854494495  0.21491974189186555  0.6057470427101088  1.0000
  C   C40       1.0  0.29571361446973216  0.7149197419282952  0.8942529570286568  1.0000
  C   C41       1.0  0.22818237462425614  0.8453413237892539  0.37699641724125277  1.0000
  C   C42       1.0  0.771817625791784  0.3453413237528241  0.12300358288074638  1.0000
  C   C43       1.0  0.7718176251077592  0.15465867628360555  0.6230035826898858  1.0000
  C   C44       1.0  0.22818237481142267  0.6546586763200353  0.87699641704888  1.0000
  C   C45       1.0  0.17179475244709635  0.8618543892655205  0.2934106370219573  1.0000
  C   C46       1.0  0.8282052470977525  0.3618543892290909  0.20658936310155412  1.0000
  C   C47       1.0  0.8282052474593598  0.13814561080733875  0.7065893635513945  1.0000
  C   C48       1.0  0.1717947526342629  0.6381456108437684  0.7934106368295845  1.0000
  C   C49       1.0  0.18269617966880444  0.8172242635707977  0.22592463202007182  1.0000
  C   C50       1.0  0.8173038198760444  0.31722426353436806  0.27407536810343963  1.0000
  C   C51       1.0  0.8173038200632109  0.1827757365020617  0.7740753679110668  1.0000
  C   C52       1.0  0.182696179855971  0.6827757365384913  0.7259246318276991  1.0000
  C   C53       1.0  0.2500999198222935  0.756878050978175  0.24086282928297517  1.0000
  C   C54       1.0  0.7499000797225552  0.25687805146114007  0.2591371708405363  1.0000
  C   C55       1.0  0.7499000799097219  0.24312194857528965  0.7591371706481634  1.0000
  C   C56       1.0  0.25009992018390076  0.7431219486117193  0.7408628297328154  1.0000
  C   C57       1.0  0.21161619833745943  0.89068283284028  0.4510651070023135  1.0000
  C   C58       1.0  0.7883838020785806  0.3906828333232451  0.048934893119685616  1.0000
  C   C59       1.0  0.7883838013945559  0.10931716671318457  0.548934892928825  1.0000
  C   C60       1.0  0.21161619852462596  0.6093171667496143  0.9510651068099407  1.0000
  C   C61       1.0  0.12141210088140457  0.8356717993484  0.13593326471274253  1.0000
  C   C62       1.0  0.8785878986634442  0.3356717993119704  0.3640667354107689  1.0000
  C   C63       1.0  0.8785878988506107  0.1643282007244593  0.8640667352183962  1.0000
  C   C64       1.0  0.1214121010685711  0.6643282007608889  0.6359332645203697  1.0000
  C   C65       1.0  0.5365838450081735  0.6719035789193069  0.40253598538060686  1.0000
  C   C66       1.0  0.4634161545366753  0.17190357888287713  0.09746401474290461  1.0000
  C   C67       1.0  0.4634161547238418  0.3280964211535526  0.5974640145505317  1.0000
  C   C68       1.0  0.5365838453697808  0.8280964211899823  0.902535985830447  1.0000
  C   C69       1.0  0.5962398495291636  0.7354059484699523  0.4093777593045721  1.0000
  C   C70       1.0  0.40376015088687645  0.2354059484335227  0.0906222408174271  1.0000
  C   C71       1.0  0.4037601502028516  0.264594051602907  0.5906222406265665  1.0000
  C   C72       1.0  0.596239849890771  0.7645940516393367  0.9093777597544124  1.0000
  C   C73       1.0  0.7139315749148579  0.7376554047009113  0.4531255270795382  1.0000
  C   C74       1.0  0.2860684246299908  0.23765540466448168  0.04687447304397326  1.0000
  C   C75       1.0  0.2860684248171574  0.26234459537194804  0.5468744728516004  1.0000
  C   C76       1.0  0.7139315751020244  0.7623445954083777  0.9531255268871653  1.0000
  C   C77       1.0  0.7713663634067577  0.6776768571347614  0.48853430899268613  1.0000
  C   C78       1.0  0.22863363613809104  0.17767685709833167  0.011465691130825345  1.0000
  C   C79       1.0  0.22863363632525757  0.322323142938098  0.5114656909384525  1.0000
  C   C80       1.0  0.7713663635939242  0.8223231429745277  0.9885343088003132  1.0000
  C   C81       1.0  0.7103325527916302  0.6143589553171763  0.48080459124270736  1.0000
  C   C82       1.0  0.28966744675321854  0.11435895528074667  0.019195408880804066  1.0000
  C   C83       1.0  0.2896674471148258  0.38564104475568306  0.5191954093306443  1.0000
  C   C84       1.0  0.7103325529787968  0.8856410447921127  0.9808045910503346  1.0000
  C   C85       1.0  0.592735835598239  0.6109815403351645  0.43807715489546706  1.0000
  C   C86       1.0  0.40726416481780126  0.11098154081812957  0.06192284522653217  1.0000
  C   C87       1.0  0.40726416413377636  0.38901845921830014  0.5619228450356716  1.0000
  C   C88       1.0  0.5927358357854055  0.8890184592547299  0.9380771547030942  1.0000
  C   C89       1.0  0.7762956128621306  0.8070101744718482  0.4629691535642816  1.0000
  C   C90       1.0  0.22370438650827743  0.3070101744354184  0.03703084591701681  1.0000
  C   C91       1.0  0.22370438686988467  0.19298982560101127  0.537030846366857  1.0000
  C   C92       1.0  0.776295613223738  0.6929898256374409  0.9629691540141218  1.0000
  C   C93       1.0  0.7702884997065852  0.5498080653317396  0.522257864545516  1.0000
  C   C94       1.0  0.22971150021259676  0.049808065295309935  0.9777421351932498  1.0000
  C   C95       1.0  0.2297115000254302  0.4501919347411198  0.4777421353856226  1.0000
  C   C96       1.0  0.7702884995194186  0.9501919347775494  0.02225786473788884  1.0000
  C   C97       1.0  0.5263848967701784  0.8546614851177349  0.17857363024891268  1.0000
  C   C98       1.0  0.4736151036458618  0.35466148508130513  0.3214263698730865  1.0000
  C   C99       1.0  0.47361510296183695  0.14533851495512456  0.821426369682226  1.0000
  C   C100      1.0  0.5263848969573449  0.6453385149915543  0.6785736300565398  1.0000
  C   C101      1.0  0.915582189641429  0.5880935390716002  0.30161979481124657  1.0000
  C   C102      1.0  0.08441781077461123  0.08809353903517053  0.19838020531075257  1.0000
  C   C103      1.0  0.08441781009058638  0.41190646100125916  0.6983802051198921  1.0000
  C   C104      1.0  0.9155821900030362  0.9119064610376888  0.8016197952610868  1.0000
  C   C105      1.0  0.8425886546965474  0.6288425651316947  0.2408505226932975  1.0000
  C   C106      1.0  0.1574113457194927  0.1288425650952649  0.2591494774287017  1.0000
  C   C107      1.0  0.15741134590665923  0.37115743494116477  0.7591494772363289  1.0000
  C   C108      1.0  0.8425886540125226  0.8711574349775946  0.7408505225024369  1.0000
  C   C109      1.0  0.8577613458759251  0.7008710390281295  0.24509353913847295  1.0000
  C   C110      1.0  0.142238654540115  0.20087103899169986  0.2549064609835262  1.0000
  C   C111      1.0  0.1422386547272816  0.29912896104472986  0.7549064607911534  1.0000
  C   C112      1.0  0.8577613451919003  0.7991289610811595  0.7450935389476123  1.0000
  C   C113      1.0  0.9449719647077583  0.7304102686551875  0.30875906612002924  1.0000
  C   C114      1.0  0.055028034837090505  0.23041026861875782  0.1912409340034822  1.0000
  C   C115      1.0  0.05502803502425702  0.26958973141767184  0.6912409338111093  1.0000
  C   C116      1.0  0.9449719650693655  0.7695897314541015  0.8087590665698694  1.0000
  C   C117      1.0  0.017219884219728296  0.6880531838698994  0.36877715683696455  1.0000
  C   C118      1.0  0.9827801161963118  0.18805318383346975  0.13122284328503456  1.0000
  C   C119      1.0  0.9827801155122872  0.31194681620295994  0.631222843094174  1.0000
  C   C120      1.0  0.01721988440689486  0.8119468162393897  0.8687771566445919  1.0000
  C   C121      1.0  0.003197258331872394  0.6158675047533647  0.36573145962730924  1.0000
  C   C122      1.0  0.9968027412129764  0.11586750471693498  0.13426854049620218  1.0000
  C   C123      1.0  0.9968027414001429  0.3841324953194947  0.6342685403038294  1.0000
  C   C124      1.0  0.0031972585190388706  0.8841324953559244  0.8657314594349363  1.0000
  O   O1        1.0  0.5079278348707545  0.7262554225176073  0.2268733711282907  1.0000
  O   O2        1.0  0.4920721646740941  0.22625542248117755  0.2731266289952208  1.0000
  O   O3        1.0  0.49207216503570145  0.2737445775552521  0.7731266294450609  1.0000
  O   O4        1.0  0.5079278350579212  0.7737445775916818  0.726873370935918  1.0000
  O   O5        1.0  0.6053691786519352  0.7478226963295765  0.10449658109493042  1.0000
  O   O6        1.0  0.39463082089291357  0.24782269629314682  0.39550341902858105  1.0000
  O   O7        1.0  0.39463082108008013  0.2521773037432829  0.8955034188362082  1.0000
  O   O8        1.0  0.6053691790135425  0.7521773037797126  0.6044965815447706  1.0000
  O   O9        1.0  0.38827778999252627  0.7622230762458898  0.0879501914241362  1.0000
  O   O10       1.0  0.6117222104235137  0.2622230762094601  0.41204980869786295  1.0000
  O   O11       1.0  0.611722209739489  0.23777692382696958  0.9120498085070025  1.0000
  O   O12       1.0  0.3882777901796929  0.7377769238633993  0.5879501912317633  1.0000
  F   F1        1.0  0.32401893279254795  0.6296258124700848  0.4205601760919526  1.0000
  F   F2        1.0  0.6759810667523009  0.12962581243365506  0.07943982403155883  1.0000
  F   F3        1.0  0.6759810669394674  0.3703741876027746  0.579439823839186  1.0000
  F   F4        1.0  0.3240189329797145  0.8703741876392043  0.9205601758995798  1.0000
  F   F5        1.0  0.6475190994803819  0.4925826030739231  0.20089295473941143  1.0000
  F   F6        1.0  0.35248090093565826  0.9925826031103527  0.29910704538258776  1.0000
  F   F7        1.0  0.35248090112282476  0.5074173969989363  0.7991070451902149  1.0000
  F   F8        1.0  0.647519098796357  0.007417396962506621  0.7008929545485508  1.0000
  F   F9        1.0  0.5274421998618768  0.4332766052740569  0.10143855253899411  1.0000
  F   F10       1.0  0.47255779968297196  0.9332766053104865  0.39856144758451734  1.0000
  F   F11       1.0  0.47255779987013846  0.5667233947988025  0.8985614473921445  1.0000
  F   F12       1.0  0.5274422000490433  0.0667233947623728  0.6014385523466212  1.0000
  F   F13       1.0  0.5741572400042599  0.5412743783414588  0.07737986399827693  1.0000
  F   F14       1.0  0.42584275954058887  0.041274378305029065  0.4226201361252345  1.0000
  F   F15       1.0  0.4258427597277553  0.45872562121200583  0.9226201359328617  1.0000
  F   F16       1.0  0.5741572401914264  0.9587256212484356  0.577379863805904  1.0000
  F   F17       1.0  0.08275341247442489  0.44312227726288256  0.19658518413458345  1.0000
  F   F18       1.0  0.9172465870704238  0.9431222772993122  0.303414815988928  1.0000
  F   F19       1.0  0.9172465872575903  0.5568777228099768  0.8034148157965552  1.0000
  F   F20       1.0  0.08275341266159143  0.056877722773547155  0.6965851839422106  1.0000
  F   F21       1.0  0.02608495751330472  0.5451652036434689  0.1411479996625775  1.0000
  F   F22       1.0  0.973915042031544  0.045165203607039135  0.35885200046093396  1.0000
  F   F23       1.0  0.9739150422187106  0.45483479642939056  0.8588520002685612  1.0000
  F   F24       1.0  0.026084957700471246  0.9548347964658204  0.6411479994702046  1.0000
  F   F25       1.0  0.09731553658581055  0.46707270523725797  0.06372635018136005  1.0000
  F   F26       1.0  0.9026844629590383  0.9670727047542929  0.4362736499421514  1.0000
  F   F27       1.0  0.9026844631462048  0.5329272948356015  0.9362736497497786  1.0000
  F   F28       1.0  0.09731553677297707  0.032927294799171794  0.5637263499889872  1.0000
  F   F29       1.0  0.11633639365678683  0.8692265022741513  0.4846544249123519  1.0000
  F   F30       1.0  0.8836636067592533  0.36922650223772163  0.015345575209647268  1.0000
  F   F31       1.0  0.8836636060752285  0.13077349779870806  0.5153455750187868  1.0000
  F   F32       1.0  0.11633639384395339  0.6307734978351378  0.9846544247199791  1.0000
  F   F33       1.0  0.19233862181941644  0.9583054796890803  0.4275771385935209  1.0000
  F   F34       1.0  0.8076613785966238  0.4583054796526505  0.07242286152847827  1.0000
  F   F35       1.0  0.8076613787837903  0.04169452038377919  0.5724228613361055  1.0000
  F   F36       1.0  0.19233862200658297  0.5416945204202088  0.9275771384011481  1.0000
  F   F37       1.0  0.30821631882497913  0.8888135299640461  0.5164931853214798  1.0000
  F   F38       1.0  0.6917836810942026  0.3888135299276163  0.983506814417286  1.0000
  F   F39       1.0  0.6917836809070361  0.11118647010881337  0.4835068146096588  1.0000
  F   F40       1.0  0.308216319509004  0.6111864701452431  0.0164931855123404  1.0000
  F   F41       1.0  0.010737572496283578  0.8625417547680959  0.1358249596791063  1.0000
  F   F42       1.0  0.9892624277453159  0.3625417547316662  0.36417503980067983  1.0000
  F   F43       1.0  0.9892624272357318  0.13745824530476347  0.8641750402520323  1.0000
  F   F44       1.0  0.010737572857890827  0.6374582453411932  0.6358249601289464  1.0000
  F   F45       1.0  0.18204440350277556  0.8842141151302904  0.09918662984045838  1.0000
  F   F46       1.0  0.8179555969132645  0.3842141150938608  0.40081337028154085  1.0000
  F   F47       1.0  0.8179555962292397  0.11578588494256893  0.9008133700906803  1.0000
  F   F48       1.0  0.18204440368994207  0.6157858849789986  0.5991866296480854  1.0000
  F   F49       1.0  0.10629586811421067  0.7792503565846794  0.0830708312461817  1.0000
  F   F50       1.0  0.8937041314306381  0.2792503565482497  0.4169291688773297  1.0000
  F   F51       1.0  0.8937041316178046  0.22074964348817996  0.9169291686849569  1.0000
  F   F52       1.0  0.1062958683013772  0.7207496435246097  0.5830708310538089  1.0000
  F   F53       1.0  0.7169211772084826  0.8545019893666256  0.5029986175645644  1.0000
  F   F54       1.0  0.2830788227106991  0.3545019893301958  0.9970013821742013  1.0000
  F   F55       1.0  0.28307882252353256  0.1454980107062339  0.49700138236657415  1.0000
  F   F56       1.0  0.7169211770213161  0.6454980107426636  0.0029986177569372705  1.0000
  F   F57       1.0  0.8888898492611956  0.8027104421197196  0.5087020977789777  1.0000
  F   F58       1.0  0.11111015083242709  0.30271044208329  0.9912979026020012  1.0000
  F   F59       1.0  0.11111015047081983  0.1972895574337449  0.491297902152161  1.0000
  F   F60       1.0  0.8888898499452202  0.6972895574701746  0.008702097969838165  1.0000
  F   F61       1.0  0.7819243040476163  0.8351667746572337  0.3845861454392334  1.0000
  F   F62       1.0  0.21807569549723252  0.33516677462080396  0.11541385468427803  1.0000
  F   F63       1.0  0.21807569568439905  0.1648332254156257  0.6154138544919052  1.0000
  F   F64       1.0  0.7819243042347828  0.6648332254520554  0.8845861452468606  1.0000
  F   F65       1.0  0.7860629508078976  0.5530452535898351  0.6099580548900017  1.0000
  F   F66       1.0  0.21393704911128417  0.05304525355340544  0.890041944848764  1.0000
  F   F67       1.0  0.21393704892411766  0.4469547459636295  0.3900419450411368  1.0000
  F   F68       1.0  0.7860629514919224  0.9469547460000591  0.10995805508086236  1.0000
  F   F69       1.0  0.8795127874817388  0.5394695074273083  0.5029118943702998  1.0000
  F   F70       1.0  0.12048721261188379  0.03946950739087858  0.997088106010679  1.0000
  F   F71       1.0  0.12048721242471724  0.4605304926455512  0.4970881062030518  1.0000
  F   F72       1.0  0.8795127871201315  0.9605304926819808  0.002911893920459623  1.0000
  F   F73       1.0  0.7044429856891677  0.49177612060974846  0.49722956458487366  1.0000
  F   F74       1.0  0.295557013855681  0.9917761206461781  0.0027704355386378083  1.0000
  F   F75       1.0  0.2955570140428476  0.5082238794631109  0.502770435346265  1.0000
  F   F76       1.0  0.7044429858763342  0.008223879426681202  0.9972295643925008  1.0000
  F   F77       1.0  0.5119508813407418  0.8984045712556508  0.1098374746603487  1.0000
  F   F78       1.0  0.4880491190752984  0.39840457121922107  0.39016252546165053  1.0000
  F   F79       1.0  0.4880491192624649  0.10159542881720862  0.8901625252692776  1.0000
  F   F80       1.0  0.5119508815279084  0.6015954288536383  0.6098374744679759  1.0000
  F   F81       1.0  0.6369551947104706  0.8652416057465528  0.2257527850761497  1.0000
  F   F82       1.0  0.36304480553112894  0.3652416057101232  0.2742472144036365  1.0000
  F   F83       1.0  0.3630448058927362  0.13475839432630646  0.7742472148534767  1.0000
  F   F84       1.0  0.6369551942008864  0.6347583943627362  0.7257527855275022  1.0000
  F   F85       1.0  0.44662230599475994  0.8737976578763504  0.22758200803397036  1.0000
  F   F86       1.0  0.5533776944212803  0.37379765783992075  0.2724179920880288  1.0000
  F   F87       1.0  0.5533776937372554  0.12620234219650897  0.7724179918971682  1.0000
  F   F88       1.0  0.4466223061819264  0.6262023422329387  0.7275820078415975  1.0000
  F   F89       1.0  0.9005088230190472  0.5174032853237827  0.29873319912592844  1.0000
  F   F90       1.0  0.09949117739699298  0.017403285287352924  0.20126680099607075  1.0000
  F   F91       1.0  0.09949117758415955  0.4825967147490768  0.701266800803698  1.0000
  F   F92       1.0  0.9005088223350223  0.9825967147855066  0.7987331989350678  1.0000
  P   P1        1.0  0.3863382514929691  0.6636997803338702  0.35019849328489006  1.0000
  P   P2        1.0  0.6136617480518797  0.1636997802974405  0.14980150683862137  1.0000
  P   P3        1.0  0.6136617482390461  0.33630021973898916  0.6498015066462485  1.0000
  P   P4        1.0  0.38633825168013564  0.8363002192560242  0.8501984930925172  1.0000
  S   S1        1.0  0.5047278027911337  0.7619077106386773  0.1447116457681463  1.0000
  S   S2        1.0  0.495272196753715  0.26190771060224766  0.3552883543553651  1.0000
  S   S3        1.0  0.4952721969408815  0.23809228943418204  0.8552883541629923  1.0000
  S   S4        1.0  0.5047278029783003  0.7380922894706117  0.6447116455757734  1.0000
