data_image0
_chemical_formula_structural       H4C80O24F88P4S8
_chemical_formula_sum              "H4 C80 O24 F88 P4 S8"
_cell_length_a       8.095760705540032
_cell_length_b       18.198794671850955
_cell_length_c       18.280186641201105
_cell_angle_alpha    90.0
_cell_angle_beta     90.0
_cell_angle_gamma    90.0

_space_group_name_H-M_alt    "P 1"
_space_group_IT_number       1

loop_
  _space_group_symop_operation_xyz
  'x, y, z'

loop_
  _atom_site_type_symbol
  _atom_site_label
  _atom_site_symmetry_multiplicity
  _atom_site_fract_x
  _atom_site_fract_y
  _atom_site_fract_z
  _atom_site_occupancy
  H   H1        1.0  0.3795181443415759  0.5989523436329516  0.3286633100593573  1.0000
  H   H2        1.0  0.12048185531626777  0.40104765626534095  0.8286633100265046  1.0000
  H   H3        1.0  0.6204818549741115  0.09895234395854875  0.17133668990779005  1.0000
  H   H4        1.0  0.8795181439994195  0.9010476559397437  0.6713366904219777  1.0000
  C   C1        1.0  0.8132622232144907  0.4111000846430822  0.5835427268536414  1.0000
  C   C2        1.0  0.6867377769942546  0.5888999152552103  0.083542726886494  1.0000
  C   C3        1.0  0.18673777610119663  0.9111000843174849  0.9164572730478007  1.0000
  C   C4        1.0  0.31326222355664707  0.08889991558080754  0.41645727308065333  1.0000
  C   C5        1.0  0.9802116970391178  0.3933766927473048  0.5712577729629712  1.0000
  C   C6        1.0  0.5197883019344132  0.6066233077004747  0.07125777299582385  1.0000
  C   C7        1.0  0.019788302276569535  0.8933766924217076  0.9287422274855113  1.0000
  C   C8        1.0  0.4802116973812741  0.10662330747658494  0.42874222697132347  1.0000
  C   C9        1.0  0.025278291619953326  0.3475826890768827  0.5137352284376321  1.0000
  C   C10       1.0  0.4747217080378904  0.6524173108214097  0.013735228470484728  1.0000
  C   C11       1.0  0.9747217089309483  0.8475826893007724  0.9862647714638101  1.0000
  C   C12       1.0  0.525278291277797  0.152417311147007  0.4862647714966626  1.0000
  C   C13       1.0  0.9040719268037916  0.32011581893447894  0.4668251685552426  1.0000
  C   C14       1.0  0.5959280734049537  0.6798841809638135  0.96682516852239  1.0000
  C   C15       1.0  0.09592807374711007  0.8201158191583686  0.03317483141190475  1.0000
  C   C16       1.0  0.4040719259107336  0.17988418073992385  0.5331748313790521  1.0000
  C   C17       1.0  0.7373643746553648  0.33722264472231755  0.47764237539679194  1.0000
  C   C18       1.0  0.7626356243181662  0.6627773551759749  0.9776423753639393  1.0000
  C   C19       1.0  0.2626356246603226  0.8372226449462072  0.022357625117395745  1.0000
  C   C20       1.0  0.2373643749975211  0.1627773549520852  0.5223576250845431  1.0000
  C   C21       1.0  0.6933934257911771  0.3812666022729676  0.5363857017685102  1.0000
  C   C22       1.0  0.8066065744175682  0.6187333976253249  0.03638570180136284  1.0000
  C   C23       1.0  0.3066065747597246  0.8812666024968573  0.9636142981329319  1.0000
  C   C24       1.0  0.19339342489811912  0.11873339740143514  0.4636142981657845  1.0000
  C   C25       1.0  0.6040240834506988  0.5347952100945441  0.6227553418049787  1.0000
  C   C26       1.0  0.8959759167580467  0.4652047898037484  0.12275534129079099  1.0000
  C   C27       1.0  0.3959759158649886  0.03479521042014128  0.8772446586435038  1.0000
  C   C28       1.0  0.1040240837928551  0.9652047894781512  0.3772446586763563  1.0000
  C   C29       1.0  0.43383952388767066  0.5324220880950524  0.6383107688682396  1.0000
  C   C30       1.0  0.06616047700538738  0.46757791180324004  0.13831076890109226  1.0000
  C   C31       1.0  0.566160476663231  0.03242208787116275  0.8616892310332025  1.0000
  C   C32       1.0  0.9338395235455142  0.9675779120271297  0.36168923106605505  1.0000
  C   C33       1.0  0.3251812072704281  0.5814659322668062  0.6053928883339268  1.0000
  C   C34       1.0  0.1748187923874156  0.4185340676314863  0.10539288836677939  1.0000
  C   C35       1.0  0.6748187932804737  0.08146593259240341  0.8946071121145557  1.0000
  C   C36       1.0  0.8251812069282718  0.9185340673058892  0.39460711160036793  1.0000
  C   C37       1.0  0.3851714166731902  0.6339514159058637  0.5563982676782838  1.0000
  C   C38       1.0  0.11482858298465344  0.36604858454191574  0.05639826771113644  1.0000
  C   C39       1.0  0.6148285826424972  0.13395141568197394  0.9436017322231582  1.0000
  C   C40       1.0  0.8851714163310339  0.8660485842163186  0.4436017322560109  1.0000
  C   C41       1.0  0.5533482439685296  0.6373468061563826  0.5396260538044403  1.0000
  C   C42       1.0  0.9466517562402159  0.3626531937419098  0.039626053837293035  1.0000
  C   C43       1.0  0.4466517565823722  0.13734680593249296  0.9603739460970017  1.0000
  C   C44       1.0  0.05334824431068584  0.8626531939657995  0.46037394612985433  1.0000
  C   C45       1.0  0.6605597749869853  0.5880227923309823  0.5727899022869067  1.0000
  C   C46       1.0  0.8394402239865458  0.41197720811679717  0.07278990231975944  1.0000
  C   C47       1.0  0.33944022432870213  0.08802279210709255  0.9272100976145352  1.0000
  C   C48       1.0  0.16055977532914156  0.9119772077912  0.4272100976473879  1.0000
  C   C49       1.0  0.6778902452297616  0.4231411985712999  0.7351155009387284  1.0000
  C   C50       1.0  0.8221097549789838  0.5768588013269925  0.235115500971581  1.0000
  C   C51       1.0  0.3221097553211401  0.9231411987951896  0.7648844989627137  1.0000
  C   C52       1.0  0.17789024557191796  0.07685880110310282  0.2648844989955664  1.0000
  C   C53       1.0  0.6655126844736208  0.4652854632783643  0.7995752426868891  1.0000
  C   C54       1.0  0.8344873157351247  0.5347145366199282  0.2995752427197417  1.0000
  C   C55       1.0  0.33448731607728105  0.9652854635022541  0.700424757214553  1.0000
  C   C56       1.0  0.16551268481577705  0.034714536945525364  0.20042475724740572  1.0000
  C   C57       1.0  0.6204869872898395  0.43399173365126503  0.8656919035133119  1.0000
  C   C58       1.0  0.8795130129189058  0.5660082662470275  0.3656919035461645  1.0000
  C   C59       1.0  0.3795130132610622  0.9339917333256679  0.6343080963881301  1.0000
  C   C60       1.0  0.1204869863967815  0.06600826657262471  0.13430809642098282  1.0000
  C   C61       1.0  0.5869987976235523  0.35854631955888466  0.868098528831942  1.0000
  C   C62       1.0  0.9130012025851931  0.6414536803394079  0.3680985288647947  1.0000
  C   C63       1.0  0.41300120292734943  0.8585463197827744  0.6319014710695  1.0000
  C   C64       1.0  0.08699879673049425  0.14145368066500502  0.13190147110235262  1.0000
  C   C65       1.0  0.5993426555554714  0.31541411469840946  0.8051873730230625  1.0000
  C   C66       1.0  0.9006573434180595  0.6845858851998831  0.30518737305591526  1.0000
  C   C67       1.0  0.40065734376021583  0.8154141149222992  0.6948126268783795  1.0000
  C   C68       1.0  0.09934265589762782  0.18458588552548025  0.1948126269112321  1.0000
  C   C69       1.0  0.6421073607626155  0.3476367508989836  0.7388871544427797  1.0000
  C   C70       1.0  0.8578926394461298  0.6523632489993089  0.23888715447563239  1.0000
  C   C71       1.0  0.35789263978828617  0.8476367511228733  0.7611128460057027  1.0000
  C   C72       1.0  0.14210736110477187  0.15236324877541918  0.261112845491515  1.0000
  C   C73       1.0  0.4063520834736131  0.768283432068523  0.3170243654371802  1.0000
  C   C74       1.0  0.09364791618423053  0.23171656837925647  0.8170243654043277  1.0000
  C   C75       1.0  0.5936479170772886  0.26828343184463327  0.1829756345299671  1.0000
  C   C76       1.0  0.9063520831314568  0.7317165680536593  0.6829756344971144  1.0000
  C   C77       1.0  0.2928348448315284  0.42404268739491835  0.34446275213666333  1.0000
  C   C78       1.0  0.20716515482631528  0.5759573125033741  0.8444627521038106  1.0000
  C   C79       1.0  0.7071651557193733  0.924042687618808  0.15553724783048403  1.0000
  C   C80       1.0  0.792834844489372  0.07595731227948442  0.6555372477976313  1.0000
  O   O1        1.0  0.4696266327879792  0.6293810604784984  0.2917532487321242  1.0000
  O   O2        1.0  0.030373368105078822  0.37061893996928097  0.7917532486992714  1.0000
  O   O3        1.0  0.5303733677629225  0.1293810602546087  0.20824675123502315  1.0000
  O   O4        1.0  0.9696266324458229  0.8706189396436838  0.7082467512021704  1.0000
  O   O5        1.0  0.5080432994005646  0.7140722638131883  0.1912210257263721  1.0000
  O   O6        1.0  0.9919567008081809  0.2859277360851042  0.6912210256935194  1.0000
  O   O7        1.0  0.49195670115033713  0.2140722635892986  0.3087789742407752  1.0000
  O   O8        1.0  0.008043299742720887  0.7859277363089939  0.808778974754963  1.0000
  O   O9        1.0  0.22231853996973358  0.682919572647497  0.23285607710405276  1.0000
  O   O10       1.0  0.27768146092332446  0.3170804278002824  0.7328560770712002  1.0000
  O   O11       1.0  0.7776814605811682  0.18291957242360732  0.2671439228630946  1.0000
  O   O12       1.0  0.7223185396275773  0.8170804274746851  0.7671439228302419  1.0000
  O   O13       1.0  0.2779120692710641  0.5653951020127356  0.37160086400264825  1.0000
  O   O14       1.0  0.22208793162199394  0.43460489788555684  0.8716008639697956  1.0000
  O   O15       1.0  0.7220879312798376  0.06539510233833287  0.12839913596449906  1.0000
  O   O16       1.0  0.7779120689289077  0.9346048981094466  0.6283991359316464  1.0000
  O   O17       1.0  0.5217913910312665  0.4984930669080026  0.41707320880499776  1.0000
  O   O18       1.0  0.9782086091774789  0.5015069329902898  0.9170732087721453  1.0000
  O   O19       1.0  0.4782086082844209  0.9984930671318923  0.08292679116214954  1.0000
  O   O20       1.0  0.021791391373422758  0.0015069327664001132  0.5829267911292969  1.0000
  O   O21       1.0  0.2465050107810566  0.4830055170409798  0.4754158729655605  1.0000
  O   O22       1.0  0.25349499011200144  0.5169944828573126  0.9754158734797482  1.0000
  O   O23       1.0  0.7534949897698451  0.9830055167153826  0.024584127001586888  1.0000
  O   O24       1.0  0.7465050104389004  0.016994483182909827  0.5245841269687342  1.0000
  F   F1        1.0  0.9021720546905417  0.5127297515166129  0.680131100082854  1.0000
  F   F2        1.0  0.5978279455182036  0.4872702483816795  0.18013110011570668  1.0000
  F   F3        1.0  0.09782794586035999  0.012729751292723267  0.819868899818588  1.0000
  F   F4        1.0  0.40217205379748366  0.9872702486055692  0.3198688998514406  1.0000
  F   F5        1.0  0.09944837913119799  0.4191352420607425  0.6148286782077147  1.0000
  F   F6        1.0  0.40055162176186004  0.58086475783755  0.11482867824056739  1.0000
  F   F7        1.0  0.9005516214197038  0.9191352417351453  0.8851713216937273  1.0000
  F   F8        1.0  0.5994483787890417  0.08086475816314724  0.38517132172658  1.0000
  F   F9        1.0  0.18353818671828984  0.3286411302420448  0.5039526702225563  1.0000
  F   F10       1.0  0.31646181293955383  0.6713588696562477  0.003952670255408969  1.0000
  F   F11       1.0  0.8164618125973976  0.8286411304659345  0.9960473296788857  1.0000
  F   F12       1.0  0.6835381876113479  0.17135886998184494  0.4960473297117384  1.0000
  F   F13       1.0  0.9469223620646322  0.27588694309332223  0.41178169937467374  1.0000
  F   F14       1.0  0.5530776381441131  0.7241130568049703  0.9117816993418211  1.0000
  F   F15       1.0  0.05307763725105514  0.775886943317212  0.08821830059247363  1.0000
  F   F16       1.0  0.44692236240678856  0.22411305713056748  0.5882183005596209  1.0000
  F   F17       1.0  0.6225181071065046  0.30943730678550735  0.4328879324549421  1.0000
  F   F18       1.0  0.8774818931022408  0.6905626931127852  0.9328879324220894  1.0000
  F   F19       1.0  0.3774818934443972  0.809437307009397  0.06711206751220519  1.0000
  F   F20       1.0  0.12251810621344648  0.19056269343838236  0.5671120674793525  1.0000
  F   F21       1.0  0.5323230177802704  0.39330730848187573  0.5500352183132496  1.0000
  F   F22       1.0  0.9676769824284751  0.6066926914164168  0.05003521834610232  1.0000
  F   F23       1.0  0.4676769827706314  0.8933073087057654  0.9499647821352327  1.0000
  F   F24       1.0  0.03232301688721227  0.10669269174201397  0.4499647821680854  1.0000
  F   F25       1.0  0.3720525864776138  0.4813561237409704  0.6835773170847096  1.0000
  F   F26       1.0  0.12794741441544427  0.5186438761573222  0.18357731711756223  1.0000
  F   F27       1.0  0.627947414073288  0.9813561239648599  0.8164226828167325  1.0000
  F   F28       1.0  0.8720525861354574  0.01864387648291935  0.3164226828495851  1.0000
  F   F29       1.0  0.16322722571280004  0.5779370480105683  0.6186956255965711  1.0000
  F   F30       1.0  0.336772775180258  0.42206295188772414  0.11869562562942378  1.0000
  F   F31       1.0  0.8367727748381016  0.07793704833616555  0.881304374304871  1.0000
  F   F32       1.0  0.6632272253706437  0.9220629521116138  0.3813043743377236  1.0000
  F   F33       1.0  0.280192336768023  0.6804509168485781  0.5246558521663887  1.0000
  F   F34       1.0  0.21980766288982068  0.31954908304971436  0.024655852199241317  1.0000
  F   F35       1.0  0.7198076637828787  0.18045091717417533  0.9753441477350534  1.0000
  F   F36       1.0  0.7801923364258667  0.8195490832736041  0.475344147767906  1.0000
  F   F37       1.0  0.609031421423554  0.6870557487710967  0.49148052294775035  1.0000
  F   F38       1.0  0.8909685787851913  0.3129442516766828  0.9914805229148977  1.0000
  F   F39       1.0  0.3909685791273477  0.18705574854720686  0.008519477019396952  1.0000
  F   F40       1.0  0.10903142176571035  0.8129442513510856  0.5085194769865442  1.0000
  F   F41       1.0  0.8222982943955398  0.5915503232008864  0.5565552644341883  1.0000
  F   F42       1.0  0.6777017045779912  0.40844967669740617  0.056555263920000716  1.0000
  F   F43       1.0  0.17770170492014753  0.09155032352648355  0.943444736014294  1.0000
  F   F44       1.0  0.32229829473769617  0.908449676371809  0.4434447360471466  1.0000
  F   F45       1.0  0.6971925264709876  0.5378408409178718  0.7969559198681557  1.0000
  F   F46       1.0  0.8028074737377577  0.46215915898042076  0.29695591990100845  1.0000
  F   F47       1.0  0.3028074740799141  0.03784084124346892  0.7030440800332862  1.0000
  F   F48       1.0  0.19719252681314395  0.9621591592043104  0.20304408006613892  1.0000
  F   F49       1.0  0.6063905281489579  0.47531258888148215  0.9258449906553013  1.0000
  F   F50       1.0  0.8936094720597875  0.5246874110168104  0.4258449906881539  1.0000
  F   F51       1.0  0.39360947116672945  0.9753125885558849  0.5741550097931811  1.0000
  F   F52       1.0  0.10639052849111426  0.024687411342407584  0.07415500982603382  1.0000
  F   F53       1.0  0.5398583887254927  0.32740611328596225  0.9308132801909945  1.0000
  F   F54       1.0  0.9601416114832526  0.6725938866123302  0.43081328022384724  1.0000
  F   F55       1.0  0.4601416118254089  0.827406113509852  0.5691867197104475  1.0000
  F   F56       1.0  0.03985838783243473  0.1725938863884405  0.06918671974330014  1.0000
  F   F57       1.0  0.5651222233964012  0.24327729005306178  0.8087696881977011  1.0000
  F   F58       1.0  0.9348777768123443  0.7567227098452307  0.30876968823055384  1.0000
  F   F59       1.0  0.43487777715450054  0.7432772897274645  0.6912303117037408  1.0000
  F   F60       1.0  0.06512222250334312  0.25672271017082793  0.19123031173659352  1.0000
  F   F61       1.0  0.6436799615919963  0.30549786347111624  0.67905313625312  1.0000
  F   F62       1.0  0.8563200386167491  0.6945021364271763  0.17905313628597275  1.0000
  F   F63       1.0  0.35632003895890546  0.805497863145519  0.8209468636483219  1.0000
  F   F64       1.0  0.14367996193415258  0.1945021367527735  0.3209468636811746  1.0000
  F   F65       1.0  0.31355866388971637  0.751617203042425  0.3765858842209108  1.0000
  F   F66       1.0  0.18644133576812727  0.24838279740535446  0.8765858841880582  1.0000
  F   F67       1.0  0.6864413366611852  0.2516172028185353  0.12341411574623652  1.0000
  F   F68       1.0  0.81355866354756  0.7483827970797573  0.6234141157133838  1.0000
  F   F69       1.0  0.5643064767062254  0.7786489113984139  0.3388970660746464  1.0000
  F   F70       1.0  0.9356935222673057  0.22135108904936557  0.8388970665888341  1.0000
  F   F71       1.0  0.43569352260946204  0.27864891117452417  0.1611029338925009  1.0000
  F   F72       1.0  0.06430647704838165  0.7213510887237684  0.6611029338596482  1.0000
  F   F73       1.0  0.3488464435550052  0.8315604001735144  0.28760642564503675  1.0000
  F   F74       1.0  0.1511535573380528  0.16843959972477815  0.7876064256121841  1.0000
  F   F75       1.0  0.6511535569958965  0.3315603999496246  0.21239357432211056  1.0000
  F   F76       1.0  0.848846443212849  0.6684395999486679  0.7123935742892579  1.0000
  F   F77       1.0  0.3439489569021614  0.3583480844523817  0.3692857776837474  1.0000
  F   F78       1.0  0.15605104275568227  0.6416519154459107  0.8692857776508948  1.0000
  F   F79       1.0  0.656051042413526  0.8583480846762714  0.13071422283044035  1.0000
  F   F80       1.0  0.843948956560005  0.14165191522202106  0.6307142227975876  1.0000
  F   F81       1.0  0.12672191994236645  0.42050793846456747  0.3330599484294959  1.0000
  F   F82       1.0  0.3732780797154772  0.5794920619832119  0.8330599483966432  1.0000
  F   F83       1.0  0.8732780793733209  0.9205079381389702  0.16694005153765146  1.0000
  F   F84       1.0  0.6267219196002102  0.0794920617593222  0.6669400515047988  1.0000
  F   F85       1.0  0.36658972738276235  0.43739211379268816  0.27922672947417015  1.0000
  F   F86       1.0  0.13341027227508132  0.5626078866550912  0.7792267294413175  1.0000
  F   F87       1.0  0.633410271932925  0.937392113467091  0.22077327104001757  1.0000
  F   F88       1.0  0.8665897282758204  0.06260788643120153  0.7207732710071649  1.0000
  P   P1        1.0  0.7469946617692919  0.46878563794094935  0.6557207355303244  1.0000
  P   P2        1.0  0.7530053384394534  0.5312143619573432  0.1557207355631771  1.0000
  P   P3        1.0  0.2530053387816098  0.9687856376153521  0.844279264918158  1.0000
  P   P4        1.0  0.24699466211144827  0.031214362282940337  0.3442792644039702  1.0000
  S   S1        1.0  0.39517399987016955  0.6928794141242713  0.24812255471052339  1.0000
  S   S2        1.0  0.10482599978767414  0.3071205857740212  0.7481225546776706  1.0000
  S   S3        1.0  0.6048260006807321  0.19287941444986856  0.2518774452566239  1.0000
  S   S4        1.0  0.8951739995280132  0.8071205854484239  0.7518774452237713  1.0000
  S   S5        1.0  0.34327409876359744  0.4989336581748739  0.4110901801769699  1.0000
  S   S6        1.0  0.15672590089424626  0.5010663417234186  0.9110901801441172  1.0000
  S   S7        1.0  0.6567259005520899  0.9989336578492767  0.08890981979017747  1.0000
  S   S8        1.0  0.8432740996566555  0.0010663420490158344  0.5889098197573248  1.0000
