data_image0
_chemical_formula_structural       H10C14N4O4
_chemical_formula_sum              "H10 C14 N4 O4"
_cell_length_a       3.6444581465952797
_cell_length_b       7.4932784964443
_cell_length_c       12.497763333115627
_cell_angle_alpha    77.75874490372995
_cell_angle_beta     84.76456102052734
_cell_angle_gamma    82.50187454688853

_space_group_name_H-M_alt    "P 1"
_space_group_IT_number       1

loop_
  _space_group_symop_operation_xyz
  'x, y, z'

loop_
  _atom_site_type_symbol
  _atom_site_label
  _atom_site_symmetry_multiplicity
  _atom_site_fract_x
  _atom_site_fract_y
  _atom_site_fract_z
  _atom_site_occupancy
  H   H1        1.0  0.7294863476584124  0.24401421590102593  0.3341205446685534  1.0000
  H   H2        1.0  0.2705136528798891  0.7559857834748246  0.6658794552840825  1.0000
  H   H3        1.0  0.5594659216371919  0.8618968853869358  0.32971046570629337  1.0000
  H   H4        1.0  0.4405340789011097  0.13810311398891478  0.6702895342463427  1.0000
  H   H5        1.0  0.4619678528756228  0.3589639523861876  0.13999540727399276  1.0000
  H   H6        1.0  0.5380321476626787  0.6410360469896629  0.8600045926786434  1.0000
  H   H7        1.0  0.755274084436313  0.5306373409088835  0.41039365012623935  1.0000
  H   H8        1.0  0.2447259161019885  0.4693626584669671  0.5896063498263967  1.0000
  H   H9        1.0  0.24465110325855702  0.6832410571735088  0.04609957676581245  1.0000
  H   H10       1.0  0.755348896960422  0.3167589435769097  0.953900423022389  1.0000
  C   C1        1.0  0.9545295587426301  0.09949549943843525  0.4675753401148622  1.0000
  C   C2        1.0  0.045470441795671265  0.9005044999374153  0.532424659837774  1.0000
  C   C3        1.0  0.52864803938083  0.755391347292056  0.2852604060128409  1.0000
  C   C4        1.0  0.4713519611574715  0.24460865208379454  0.7147395939397951  1.0000
  C   C5        1.0  0.47839669116378164  0.4756133958893777  0.17789169209175962  1.0000
  C   C6        1.0  0.5216033093745199  0.5243866034864728  0.8221083078608764  1.0000
  C   C7        1.0  0.3836760020674187  0.7961815590807169  0.18167100412455373  1.0000
  C   C8        1.0  0.6163239984708828  0.2038184402951336  0.8183289958280823  1.0000
  C   C9        1.0  0.6394794946718996  0.5720106650316995  0.33033070735260117  1.0000
  C   C10       1.0  0.360520505866402  0.42798933434415104  0.6696692926000348  1.0000
  C   C11       1.0  0.359271940905563  0.6539551180925816  0.12614606261607686  1.0000
  C   C12       1.0  0.6407280596223918  0.3460448812801517  0.8738539381373656  1.0000
  C   C13       1.0  0.2533933801631741  0.9811042594099896  0.133126929965088  1.0000
  C   C14       1.0  0.7466066203751274  0.018895739965861108  0.8668730699875482  1.0000
  N   N1        1.0  0.6138118938650322  0.4360608680120179  0.2777065328445876  1.0000
  N   N2        1.0  0.3861881066732692  0.5639391313638327  0.7222934671080485  1.0000
  N   N3        1.0  0.1401337675847838  0.13132230124666766  0.09355422919291453  1.0000
  N   N4        1.0  0.8598662326341954  0.8686776995037506  0.9064457705952869  1.0000
  O   O1        1.0  0.8028715833492985  0.10328377744452061  0.3752226527016587  1.0000
  O   O2        1.0  0.19712841686968058  0.8967162233058978  0.6247773470865426  1.0000
  O   O3        1.0  0.02079726391143564  0.2336911004821213  0.5015484076766804  1.0000
  O   O4        1.0  0.9792027366268659  0.7663088988937292  0.49845159227595565  1.0000
