data_image0
_chemical_formula_structural       H76C76N20O24S4
_chemical_formula_sum              "H76 C76 N20 O24 S4"
_cell_length_a       8.237717127826501
_cell_length_b       13.728532455440087
_cell_length_c       17.805936392674244
_cell_angle_alpha    91.01783169469222
_cell_angle_beta     93.00755158886987
_cell_angle_gamma    96.028154708725

_space_group_name_H-M_alt    "P 1"
_space_group_IT_number       1

loop_
  _space_group_symop_operation_xyz
  'x, y, z'

loop_
  _atom_site_type_symbol
  _atom_site_label
  _atom_site_symmetry_multiplicity
  _atom_site_fract_x
  _atom_site_fract_y
  _atom_site_fract_z
  _atom_site_occupancy
  H   H1        1.0  0.3523521675513797  0.8847492313953114  0.38662878781710647  1.0000
  H   H2        1.0  0.6476478322898717  0.1152507684634191  0.6133712119584942  1.0000
  H   H3        1.0  0.6109192424742039  0.6463668883185261  0.6098933152408945  1.0000
  H   H4        1.0  0.3890807573689709  0.35363311154165705  0.3901066850963817  1.0000
  H   H5        1.0  0.7289112299224643  0.7180266763021831  0.2540868890931125  1.0000
  H   H6        1.0  0.27108876991878716  0.28197332355654714  0.7459131106824882  1.0000
  H   H7        1.0  0.003462322751086771  0.8033607799361286  0.23194064088576813  1.0000
  H   H8        1.0  0.9965376770920883  0.19663921992405456  0.768059359451508  1.0000
  H   H9        1.0  0.09392471945893761  0.07049206817613889  0.23028239328380773  1.0000
  H   H10       1.0  0.9060752803823138  0.9295079316825914  0.769717606491793  1.0000
  H   H11       1.0  0.17481357614436496  0.9578728401368115  0.23335304479850527  1.0000
  H   H12       1.0  0.8251864236968864  0.04212715972191889  0.7666469549770953  1.0000
  H   H13       1.0  0.8023442482274328  0.5844726701329176  0.4409008674564328  1.0000
  H   H14       1.0  0.19765575161381851  0.41552732972581274  0.5590991323191679  1.0000
  H   H15       1.0  0.6207518535736384  0.5073084466711373  0.44711457328837284  1.0000
  H   H16       1.0  0.379248146267613  0.4926915531875931  0.5528854264872278  1.0000
  H   H17       1.0  0.7458871452226616  0.5381748538509128  0.5300881361847058  1.0000
  H   H18       1.0  0.2541128546185898  0.4618251460078176  0.46991186359089493  1.0000
  H   H19       1.0  0.8109194368036705  0.08299538147836791  0.2542567627019973  1.0000
  H   H20       1.0  0.1890805630395043  0.9170046183818154  0.7457432376352788  1.0000
  H   H21       1.0  0.5408002760522526  0.9977496597231169  0.2793839181528432  1.0000
  H   H22       1.0  0.45919972379092233  0.0022503401370661917  0.720616082184433  1.0000
  H   H23       1.0  0.5439282744654728  0.8731092685029999  0.6542067243471087  1.0000
  H   H24       1.0  0.45607172537577856  0.12689073135573048  0.34579327542849203  1.0000
  H   H25       1.0  0.4616211812728762  0.7565469780842037  0.6853592853671236  1.0000
  H   H26       1.0  0.5383788185702986  0.24345302177597952  0.3146407149701525  1.0000
  H   H27       1.0  0.3320176867549387  0.8360399341451257  0.6382927384820101  1.0000
  H   H28       1.0  0.6679823130863127  0.1639600657136048  0.3617072612935906  1.0000
  H   H29       1.0  0.882414021791928  0.7583876063666186  0.8801875823026315  1.0000
  H   H30       1.0  0.11758597817917751  0.24161239422477163  0.11981241748504196  1.0000
  H   H31       1.0  0.712563275139818  0.41625153098060674  0.04460544328835924  1.0000
  H   H32       1.0  0.2874367259189442  0.583748468879495  0.9553945570776526  1.0000
  H   H33       1.0  0.8456050858490987  0.4942139507582938  0.6951876140400278  1.0000
  H   H34       1.0  0.15439491399215283  0.5057860491004367  0.30481238573557295  1.0000
  H   H35       1.0  0.08641666341151995  0.40736995515928165  0.6751526969479212  1.0000
  H   H36       1.0  0.9135833364297316  0.5926300446994487  0.32484730282767954  1.0000
  H   H37       1.0  0.3947491563564311  0.4122512641276012  0.6866039688756184  1.0000
  H   H38       1.0  0.6052508434867437  0.5877487357325819  0.31339603146165773  1.0000
  H   H39       1.0  0.5072815444285264  0.5066854613402512  0.7377738878214961  1.0000
  H   H40       1.0  0.4927184554146486  0.49331453851993207  0.26222611251578  1.0000
  H   H41       1.0  0.007305044835018904  0.6330608013718891  0.10607465146859543  1.0000
  H   H42       1.0  0.9926949550062326  0.36693919848684126  0.8939253483070053  1.0000
  H   H43       1.0  0.9121258873653313  0.5172624264646885  0.13476917683378753  1.0000
  H   H44       1.0  0.08787411260577413  0.4827375741267018  0.8652308229538859  1.0000
  H   H45       1.0  0.8064462486880011  0.6230968229315761  0.13777586012989826  1.0000
  H   H46       1.0  0.19355375115325024  0.37690317692715425  0.8622241396457025  1.0000
  H   H47       1.0  0.3966977716272029  0.6427042627082946  0.791660363907322  1.0000
  H   H48       1.0  0.6033022283439025  0.3572957378830957  0.20833963588035148  1.0000
  H   H49       1.0  0.15728259335447703  0.7311994324870548  0.809603318041546  1.0000
  H   H50       1.0  0.8427174064867744  0.2688005673716756  0.19039668173405483  1.0000
  H   H51       1.0  0.5027030838903679  0.38238388848757243  0.8522535720148726  1.0000
  H   H52       1.0  0.49729691595280695  0.6176161113726106  0.14774642832240353  1.0000
  H   H53       1.0  0.5219678620353639  0.3290328679493166  0.9442788437081117  1.0000
  H   H54       1.0  0.4780321379357415  0.6709671326420737  0.05572115607956176  1.0000
  H   H55       1.0  0.6741319387041135  0.3218834323106314  0.8782839104005808  1.0000
  H   H56       1.0  0.32586806113906147  0.6781165675495519  0.12171608993669539  1.0000
  H   H57       1.0  0.1532934025321456  0.08496606808306824  0.6018715811653748  1.0000
  H   H58       1.0  0.8467065973110293  0.9150339317771149  0.39812841917190134  1.0000
  H   H59       1.0  0.9907947684506779  0.22782974265018863  0.6168319931702304  1.0000
  H   H60       1.0  0.009205231390573434  0.7721702572085418  0.3831680066053704  1.0000
  H   H61       1.0  0.9642721016153737  0.2619570456921937  0.3766379306445059  1.0000
  H   H62       1.0  0.03572789822587765  0.7380429541665366  0.6233620691310948  1.0000
  H   H63       1.0  0.12472532153773691  0.11808126014019964  0.36176019149291905  1.0000
  H   H64       1.0  0.875274678305438  0.8819187397199836  0.638239808844357  1.0000
  H   H65       1.0  0.3533038060298478  0.9016910767849661  0.5149174174420094  1.0000
  H   H66       1.0  0.6466961938114036  0.0983089230737643  0.48508258233359136  1.0000
  H   H67       1.0  0.25010381535743875  0.8660018116979983  0.10997878063035155  1.0000
  H   H68       1.0  0.7498961844857361  0.133998188162185  0.8900212197069246  1.0000
  H   H69       1.0  0.4385658835009092  0.00824912904027748  0.1615861874445885  1.0000
  H   H70       1.0  0.5614341163422657  0.9917508708199056  0.8384138128926877  1.0000
  H   H71       1.0  0.3481876258758927  0.16792439698860434  0.9603417769714909  1.0000
  H   H72       1.0  0.6518123751828695  0.8320756028714974  0.039658223394521054  1.0000
  H   H73       1.0  0.16066852407152907  0.0236269598160806  0.9074683095511455  1.0000
  H   H74       1.0  0.8393314757697223  0.9763730400426498  0.0925316902244553  1.0000
  H   H75       1.0  0.9618246205755406  0.7236076875657917  2.5749730127068363e-05  1.0000
  H   H76       1.0  0.038175379267634216  0.27639231229439154  0.9999742506071491  1.0000
  C   C1        1.0  0.4696603066173708  0.7729702107896743  0.4362195056000156  1.0000
  C   C2        1.0  0.5303396944394679  0.22702978906897475  0.563780494204321  1.0000
  C   C3        1.0  0.6076049969625895  0.6528003715130786  0.48810455726487656  1.0000
  C   C4        1.0  0.3923950028805853  0.3471996283471047  0.5118954430723994  1.0000
  C   C5        1.0  0.5718631120354857  0.6838567104265304  0.5599025313181041  1.0000
  C   C6        1.0  0.42813688793754323  0.31614329016631276  0.4400974690312448  1.0000
  C   C7        1.0  0.4880901068368608  0.7662783087005731  0.5664414591288963  1.0000
  C   C8        1.0  0.5119098930043906  0.23372169115815716  0.4335585406467044  1.0000
  C   C9        1.0  0.6177729518263575  0.8523709166214386  0.26724611647333685  1.0000
  C   C10       1.0  0.38222704814474806  0.14762908396995175  0.7327538833143367  1.0000
  C   C11       1.0  0.7485939776554685  0.7977555608733731  0.25442655761783134  1.0000
  C   C12       1.0  0.25140602218578273  0.20224443898535718  0.7455734421577693  1.0000
  C   C13       1.0  0.901241737951722  0.8453162193924993  0.24194539878014856  1.0000
  C   C14       1.0  0.09875826188952944  0.15468378046623113  0.7580546009954522  1.0000
  C   C15       1.0  0.9273913978210286  0.949353398863257  0.24191898652817917  1.0000
  C   C16       1.0  0.07260860202214629  0.05064660099692623  0.758081013809097  1.0000
  C   C17       1.0  0.6998734073643554  0.5666147617351532  0.47694980319188673  1.0000
  C   C18       1.0  0.3001265924768959  0.4333852381235771  0.523050196583714  1.0000
  C   C19       1.0  0.7929959805525106  0.0032453542409498813  0.25458309663173995  1.0000
  C   C20       1.0  0.20700401929066425  0.9967546456192334  0.7454169037055361  1.0000
  C   C21       1.0  0.6415107723749732  0.9553518328854184  0.267711259767154  1.0000
  C   C22       1.0  0.3584892274662782  0.04464816697331212  0.7322887400084468  1.0000
  C   C23       1.0  0.4532885767175851  0.8096066904878219  0.6406153457851612  1.0000
  C   C24       1.0  0.5467114231236664  0.19039330937090856  0.35938465399043956  1.0000
  C   C25       1.0  0.7817118816223725  0.6190209389421963  0.9061407104299467  1.0000
  C   C26       1.0  0.21828811821887897  0.380979060916534  0.09385928934565395  1.0000
  C   C27       1.0  0.8222606397891272  0.5639111659609606  0.027195397730645717  1.0000
  C   C28       1.0  0.17773936005404775  0.43608883389922265  0.9728046026066304  1.0000
  C   C29       1.0  0.7342301511607352  0.47500888843252215  0.004873997388234066  1.0000
  C   C30       1.0  0.2657698488122938  0.5249911121603209  0.9951260029611148  1.0000
  C   C31       1.0  0.6753784503923048  0.4629109864477347  0.9296068427258946  1.0000
  C   C32       1.0  0.3246215494508701  0.5370890134124485  0.07039315761138171  1.0000
  C   C33       1.0  0.9857386576515298  0.6191761680385188  0.7523557802160195  1.0000
  C   C34       1.0  0.014261342191645241  0.3808238318216644  0.24764422012125661  1.0000
  C   C35       1.0  0.966395078818181  0.5272704426777423  0.7152079720877916  1.0000
  C   C36       1.0  0.03360492223865772  0.47272955718090676  0.28479202771654494  1.0000
  C   C37       1.0  0.10259818967645189  0.4785454107441247  0.7040989166878551  1.0000
  C   C38       1.0  0.8974018101647995  0.5214545891146056  0.29590108308774565  1.0000
  C   C39       1.0  0.261093572823472  0.5195554129036016  0.730047960132388  1.0000
  C   C40       1.0  0.7389064270177795  0.48044458695512865  0.2699520396432126  1.0000
  C   C41       1.0  0.8922998337168023  0.5848891167589056  0.10563865808987574  1.0000
  C   C42       1.0  0.10770016625430315  0.41511088383248457  0.8943613416977977  1.0000
  C   C43       1.0  0.27656771868401075  0.6110642697923067  0.7696855890955696  1.0000
  C   C44       1.0  0.7234322811572408  0.3889357300664238  0.23031441068003122  1.0000
  C   C45       1.0  0.1416428596322551  0.660337670011537  0.7800382436552402  1.0000
  C   C46       1.0  0.8583571402089963  0.3396623298471933  0.21996175612036042  1.0000
  C   C47       1.0  0.5859771447768274  0.3689046428869582  0.9000034184124096  1.0000
  C   C48       1.0  0.4140228550644241  0.6310953569717722  0.09999658136319114  1.0000
  C   C49       1.0  0.1493422477514582  0.09416211843380469  0.48062346794046673  1.0000
  C   C50       1.0  0.8506577522196472  0.9058378821575855  0.5193765318472068  1.0000
  C   C51       1.0  0.11188395354785781  0.1238789050533757  0.5528771957893938  1.0000
  C   C52       1.0  0.8881160462933937  0.8761210948053547  0.4471228039862069  1.0000
  C   C53       1.0  0.021937334411450293  0.2032660930041327  0.5615345833270852  1.0000
  C   C54       1.0  0.9780626654298012  0.7967339068545978  0.4384654164485156  1.0000
  C   C55       1.0  0.9717931921942601  0.2514288662573156  0.49737853501749046  1.0000
  C   C56       1.0  0.02820680886450207  0.748571133602786  0.5026214653485215  1.0000
  C   C57       1.0  0.005359422516272712  0.22198401940916898  0.4249936488668533  1.0000
  C   C58       1.0  0.9946405773249786  0.7780159804495613  0.5750063509087474  1.0000
  C   C59       1.0  0.09441997866836903  0.1425584729162421  0.4171285972219268  1.0000
  C   C60       1.0  0.9055800211728824  0.8574415269424883  0.5828714025536739  1.0000
  C   C61       1.0  0.24799607138299395  0.010985022449877991  0.4680617721602711  1.0000
  C   C62       1.0  0.7520039284601809  0.9890149774103053  0.531938228177005  1.0000
  C   C63       1.0  0.19473621011623793  0.9368554109810938  0.00564805555632047  1.0000
  C   C64       1.0  0.805263789726937  0.06314458887908937  0.9943519447809557  1.0000
  C   C65       1.0  0.2720379481156728  0.931669876442715  0.07715329553456453  1.0000
  C   C66       1.0  0.7279620518554327  0.06833012414867522  0.9228467042531089  1.0000
  C   C67       1.0  0.3759565803621832  0.010818068420742382  0.10655372378652664  1.0000
  C   C68       1.0  0.6240434194790684  0.989181931437988  0.893446275989074  1.0000
  C   C69       1.0  0.40017982403730024  0.09464973215546431  0.06387821084212347  1.0000
  C   C70       1.0  0.5998201758039511  0.905350267703266  0.9361217889334772  1.0000
  C   C71       1.0  0.32549440880504893  0.10140536719958979  0.9921383193226093  1.0000
  C   C72       1.0  0.6745055923816438  0.8985946333917191  0.007861680493800052  1.0000
  C   C73       1.0  0.22210214549519997  0.021497628518229065  0.9630271985596552  1.0000
  C   C74       1.0  0.7778978543460515  0.9785023713405012  0.0369728012159453  1.0000
  C   C75       1.0  0.08051657332102703  0.8525520928240978  0.9746740621738051  1.0000
  C   C76       1.0  0.9194834265202244  0.1474479070346325  0.025325937601795565  1.0000
  N   N1        1.0  0.43728107350388956  0.8111279455519976  0.5039147712131623  1.0000
  N   N2        1.0  0.5627189263392854  0.18887205430818552  0.4960852291241138  1.0000
  N   N3        1.0  0.39931523944035785  0.8174465712872081  0.37570664632026896  1.0000
  N   N4        1.0  0.6006847604008936  0.18255342857152226  0.6242933534553318  1.0000
  N   N5        1.0  0.5574294850512579  0.6979958165683235  0.4256374105784321  1.0000
  N   N6        1.0  0.4425705147899935  0.30200418329040685  0.5743625891971686  1.0000
  N   N7        1.0  0.07577765961468647  0.9960655217973603  0.2289268131259794  1.0000
  N   N8        1.0  0.9242223402265649  0.003934478061369912  0.7710731866496213  1.0000
  N   N9        1.0  0.6990285032208332  0.5354635539448555  0.8801063120856616  1.0000
  N   N10       1.0  0.30097149675219564  0.4645364466479877  0.11989368826368722  1.0000
  N   N11       1.0  0.8045462764551633  0.6974221669508024  0.8585847981071263  1.0000
  N   N12       1.0  0.19545372460167537  0.3025778329078467  0.14141520169721028  1.0000
  N   N13       1.0  0.8466233242459424  0.6360284009176039  0.9770092765414591  1.0000
  N   N14       1.0  0.15337667559723248  0.36397159894257936  0.02299072379581712  1.0000
  N   N15       1.0  0.3956412852989026  0.4727196133966788  0.7204475725643326  1.0000
  N   N16       1.0  0.6043587145423488  0.5272803864620516  0.2795524272112681  1.0000
  N   N17       1.0  0.8828862463434043  0.33784876420220405  0.5053727290752439  1.0000
  N   N18       1.0  0.11711375362770109  0.6621512363891862  0.4946272707124296  1.0000
  N   N19       1.0  0.508696302695937  0.1779797107700205  0.09652596226200215  1.0000
  N   N20       1.0  0.49130369714531447  0.8220202890887098  0.9034740375135984  1.0000
  O   O1        1.0  0.30397111951776873  0.8512630149872932  0.24831009458192838  1.0000
  O   O2        1.0  0.69602888153907  0.14873698487135587  0.7516899052224082  1.0000
  O   O3        1.0  0.41460134067583987  0.691994591429559  0.2708241266080292  1.0000
  O   O4        1.0  0.5853986591654115  0.30800540842917135  0.7291758731675716  1.0000
  O   O5        1.0  0.6732659012365921  0.6332361164127801  0.731666333014632  1.0000
  O   O6        1.0  0.32673409860465924  0.3667638834459502  0.2683336667609687  1.0000
  O   O7        1.0  0.8627620064742849  0.7870392562338261  0.7455899225415296  1.0000
  O   O8        1.0  0.13723799336696665  0.21296074362490433  0.2544100772340712  1.0000
  O   O9        1.0  0.2901597904109032  0.9646235738424552  0.5286403400067718  1.0000
  O   O10       1.0  0.7098402106459356  0.03537642601619374  0.4713596597975646  1.0000
  O   O11       1.0  0.2845490190378719  0.9895442525585909  0.40309183869259935  1.0000
  O   O12       1.0  0.7154509809332336  0.010455748032799536  0.5969081610950742  1.0000
  O   O13       1.0  0.8627316005393563  0.36857476663370575  0.570045520543741  1.0000
  O   O14       1.0  0.1372683993038187  0.6314252332264775  0.42995447979353524  1.0000
  O   O15       1.0  0.83370959127075  0.37569509192262035  0.4468728049610467  1.0000
  O   O16       1.0  0.16629040857050142  0.6243049079361098  0.5531271948145541  1.0000
  O   O17       1.0  0.048931026131495935  0.7825059645173613  0.02294975390648768  1.0000
  O   O18       1.0  0.9510689737116789  0.2174940353428219  0.9770502464307885  1.0000
  O   O19       1.0  0.021642595789598495  0.8519064454397632  0.9088286932027914  1.0000
  O   O20       1.0  0.978357404181507  0.14809355515162703  0.09117130658488205  1.0000
  O   O21       1.0  0.536823155718837  0.2513371125398393  0.05731059666288311  1.0000
  O   O22       1.0  0.4631768453380018  0.7486628873188097  0.9426894031414532  1.0000
  O   O23       1.0  0.5670087059890544  0.1708096642896457  0.16158985474611343  1.0000
  O   O24       1.0  0.4329912938541204  0.8291903355705373  0.8384101455911627  1.0000
  S   S1        1.0  0.4246364332446036  0.7958069838726821  0.28531901013031385  1.0000
  S   S2        1.0  0.5753635665966478  0.20419301598604822  0.7146809896452869  1.0000
  S   S3        1.0  0.8205968376883875  0.6858595633842358  0.765529043376254  1.0000
  S   S4        1.0  0.17940316215286398  0.3141404364744945  0.23447095639934667  1.0000
