data_image0
_chemical_formula_structural       H68B2C68N6O4F4
_chemical_formula_sum              "H68 B2 C68 N6 O4 F4"
_cell_length_a       6.894428323901333
_cell_length_b       11.931046692133036
_cell_length_c       17.681897377041757
_cell_angle_alpha    99.85728108112662
_cell_angle_beta     91.5112367569386
_cell_angle_gamma    106.67269773319254

_space_group_name_H-M_alt    "P 1"
_space_group_IT_number       1

loop_
  _space_group_symop_operation_xyz
  'x, y, z'

loop_
  _atom_site_type_symbol
  _atom_site_label
  _atom_site_symmetry_multiplicity
  _atom_site_fract_x
  _atom_site_fract_y
  _atom_site_fract_z
  _atom_site_occupancy
  H   H1        1.0  0.989098736386025  0.47217498550894416  0.31456961677457895  1.0000
  H   H2        1.0  0.010901263707326577  0.5278250147403865  0.6854303832967451  1.0000
  H   H3        1.0  0.7256651620744724  0.40688434860616074  0.292405512399266  1.0000
  H   H4        1.0  0.274334838018879  0.5931156516431699  0.7075944876720581  1.0000
  H   H5        1.0  0.900100017662886  0.38090935469822335  0.2240816160184798  1.0000
  H   H6        1.0  0.09989998243046515  0.6190906455511072  0.7759183840528443  1.0000
  H   H7        1.0  0.6798506297758697  0.17820924387509438  0.12895018948649012  1.0000
  H   H8        1.0  0.32014936991501763  0.8217907554992031  0.8710498105837384  1.0000
  H   H9        1.0  0.5507823676636123  0.2847844946054336  0.16099591052574772  1.0000
  H   H10       1.0  0.44921763202727505  0.7152155047688639  0.8390040895444807  1.0000
  H   H11       1.0  0.4439227131818871  0.16863980113975785  0.08204218468421504  1.0000
  H   H12       1.0  0.5560772865090001  0.8313601982345394  0.9179578153860134  1.0000
  H   H13       1.0  0.48207280147175746  0.22019905020853495  0.43177461913852844  1.0000
  H   H14       1.0  0.5179271986215939  0.7798009500407956  0.5682253809327956  1.0000
  H   H15       1.0  0.516261979392113  0.3197351195744014  0.36742486974444016  1.0000
  H   H16       1.0  0.48373802070123834  0.6802648806749292  0.632575130326884  1.0000
  H   H17       1.0  0.764752896937062  0.3638157494993455  0.5230167034081311  1.0000
  H   H18       1.0  0.23524710315628927  0.6361842507499851  0.476983296663193  1.0000
  H   H19       1.0  0.58200987996776  0.4341199564084876  0.5019463184672465  1.0000
  H   H20       1.0  0.4179901197231273  0.5658800429658098  0.49805368160298197  1.0000
  H   H21       1.0  0.8139874996365246  0.46297890133418207  0.45646600594996045  1.0000
  H   H22       1.0  0.18601250005436276  0.5370210980401153  0.5435339941202679  1.0000
  H   H23       1.0  0.6423904250245323  0.8872086802791394  0.19757300060561397  1.0000
  H   H24       1.0  0.3576095746663552  0.11279131909515808  0.8024269994646145  1.0000
  H   H25       1.0  0.7725650278194298  0.025579383422637558  0.17658589848566109  1.0000
  H   H26       1.0  0.2274349717673884  0.9744206157873089  0.8234141010087366  1.0000
  H   H27       1.0  0.41056878413254044  0.846099810984724  0.07316537301973491  1.0000
  H   H28       1.0  0.5894312159608107  0.15390018926460644  0.9268346270515891  1.0000
  H   H29       1.0  0.6699596562937575  0.8633074255914988  0.05671179307259511  1.0000
  H   H30       1.0  0.33004034526057036  0.1366925746790479  0.9432882070052973  1.0000
  H   H31       1.0  0.5642366717771775  0.9811190355774195  0.05103471036683537  1.0000
  H   H32       1.0  0.4357633283161738  0.018880964671910902  0.9489652897044888  1.0000
  H   H33       1.0  0.7877309495414833  0.05811686269435488  0.48719412902286835  1.0000
  H   H34       1.0  0.2122690501494041  0.9418831366799425  0.51280587104736  1.0000
  H   H35       1.0  0.657011558845534  0.9567980205936514  0.4051141789053987  1.0000
  H   H36       1.0  0.3429884408453534  0.04320197878064609  0.5948858211648298  1.0000
  H   H37       1.0  0.5512621542208275  0.06770489851181555  0.45096434231215643  1.0000
  H   H38       1.0  0.4487378458725238  0.932295101737515  0.5490356577591676  1.0000
  H   H39       1.0  0.2692060165438499  0.858800009363498  0.3494418846354528  1.0000
  H   H40       1.0  0.7307939831470374  0.14119999001079947  0.6505581154347757  1.0000
  H   H41       1.0  0.48807225566093293  0.8494944810064721  0.3007401812294849  1.0000
  H   H42       1.0  0.5119277444324183  0.1505055192428583  0.6992598188418391  1.0000
  H   H43       1.0  0.24430578701759403  0.7755398567397959  0.25443849129444135  1.0000
  H   H44       1.0  0.7556942125692242  0.22446014247015061  0.7455615081999563  1.0000
  H   H45       1.0  0.3640706184150011  0.4388363147481587  0.30177954089668  1.0000
  H   H46       1.0  0.6359293816783501  0.5611636855011717  0.698220459174644  1.0000
  H   H47       1.0  0.45470868464117087  0.6082763264322362  0.23395623991003064  1.0000
  H   H48       1.0  0.5452913149456473  0.39172367277771025  0.766043759584367  1.0000
  H   H49       1.0  0.44480203777158317  0.6892159578412692  0.1152229586235081  1.0000
  H   H50       1.0  0.555197962217699  0.31078404224371026  0.8847770408719852  1.0000
  H   H51       1.0  0.3563903890809259  0.658388102162076  0.975096642847367  1.0000
  H   H52       1.0  0.6436096110124253  0.34161189808725445  0.02490335722395711  1.0000
  H   H53       1.0  0.22384110828496184  0.5198278200778885  0.8513426842797072  1.0000
  H   H54       1.0  0.7761588914059255  0.4801721792964088  0.1486573157905213  1.0000
  H   H55       1.0  0.06996597535396855  0.3154253584682685  0.7781950536008104  1.0000
  H   H56       1.0  0.9300340243369187  0.6845746409060289  0.22180494646941806  1.0000
  H   H57       1.0  0.9520478785020298  0.1454975699719809  0.8471921871803761  1.0000
  H   H58       1.0  0.04795212108478849  0.8545024292379656  0.15280781231402155  1.0000
  H   H59       1.0  0.908943758674767  0.06919181653480164  0.9696619498063797  1.0000
  H   H60       1.0  0.09105624141858445  0.930808183714529  0.030338050264944526  1.0000
  H   H61       1.0  0.9941943987296759  0.10015620806029003  0.10914958829975871  1.0000
  H   H62       1.0  0.005805602422188042  0.8998437913352235  0.890850411777038  1.0000
  H   H63       1.0  0.9897638277502337  0.21799397915061486  0.5633213875853883  1.0000
  H   H64       1.0  0.010236171940653573  0.7820060202236826  0.4366786124848402  1.0000
  H   H65       1.0  0.18411464180988804  0.1665270277537297  0.5138882165955693  1.0000
  H   H66       1.0  0.8158853582834633  0.8334729724956008  0.48611178347575473  1.0000
  H   H67       1.0  0.1494641945396029  0.3076033367209432  0.5040312601410508  1.0000
  H   H68       1.0  0.8505358055537484  0.6923966635283872  0.4959687399302733  1.0000
  B   B1        1.0  0.0496301540716081  0.015248503761424666  0.3380077832724365  1.0000
  B   B2        1.0  0.9503698459176741  0.9847514963235549  0.6619922162230567  1.0000
  C   C1        1.0  0.8792088721738266  0.2839918063207033  0.3171223010816785  1.0000
  C   C2        1.0  0.12079112791952476  0.7160081939286272  0.6828776989896456  1.0000
  C   C3        1.0  0.42354671030645513  0.11275516676278154  0.19168703678777063  1.0000
  C   C4        1.0  0.5764532897868961  0.8872448334865489  0.8083129632835534  1.0000
  C   C5        1.0  0.7508293207267099  0.23688906595465103  0.37147783819509134  1.0000
  C   C6        1.0  0.24917067896417733  0.7631109334196463  0.6285221618751371  1.0000
  C   C7        1.0  0.46995101823158164  0.011210458154504959  0.2062838935522343  1.0000
  C   C8        1.0  0.5300489818617697  0.9887895420948256  0.7937161065190897  1.0000
  C   C9        1.0  0.795903245294174  0.13264256593212836  0.38416268547838056  1.0000
  C   C10       1.0  0.20409675479917733  0.8673574343172021  0.6158373145929436  1.0000
  C   C11       1.0  0.33929253667666615  0.9644601753816132  0.26115490770959326  1.0000
  C   C12       1.0  0.6607074634166851  0.035539824867717375  0.7388450923617308  1.0000
  C   C13       1.0  0.005728007279052706  0.20832062429787584  0.29866784412559444  1.0000
  C   C14       1.0  0.9942719928142987  0.7916793759514547  0.7013321559457297  1.0000
  C   C15       1.0  0.26044345085028986  0.12546145366864403  0.2375450585201117  1.0000
  C   C16       1.0  0.7395565492430615  0.8745385465806865  0.7624549415512123  1.0000
  C   C17       1.0  0.8734107989575854  0.3907920331050862  0.28528161036306204  1.0000
  C   C18       1.0  0.1265892007333019  0.6092079662692113  0.7147183897071664  1.0000
  C   C19       1.0  0.5301014610801754  0.19034525471395503  0.13855864086742467  1.0000
  C   C20       1.0  0.4698985386107119  0.8096547446603424  0.8614413592028037  1.0000
  C   C21       1.0  0.5979245431259467  0.2892635720781741  0.4102679149107988  1.0000
  C   C22       1.0  0.4020754569674048  0.7107364281711565  0.5897320851605253  1.0000
  C   C23       1.0  0.6954910419257417  0.3936860516777619  0.47663774910248313  1.0000
  C   C24       1.0  0.3045089577651455  0.6063139476965356  0.5233622509677454  1.0000
  C   C25       1.0  0.6228211558997776  0.9579441828683202  0.16846795706503268  1.0000
  C   C26       1.0  0.3771788441935738  0.0420558173810104  0.8315320430062915  1.0000
  C   C27       1.0  0.5639737260255052  0.9092404976139113  0.08235040433821024  1.0000
  C   C28       1.0  0.43602627406784616  0.09075950263541915  0.9176495957331139  1.0000
  C   C29       1.0  0.6930000382513215  0.04981458198039353  0.4344514833629387  1.0000
  C   C30       1.0  0.30699996173796085  0.9501854181045861  0.5655485161325546  1.0000
  C   C31       1.0  0.33415980004531554  0.8569762539331199  0.2936417766268058  1.0000
  C   C32       1.0  0.6658402000480356  0.14302374631621048  0.7063582234445184  1.0000
  C   C33       1.0  0.15706714384482584  0.21193015626521589  0.24665777148019258  1.0000
  C   C34       1.0  0.8429328562485255  0.7880698439841147  0.7533422285911315  1.0000
  C   C35       1.0  0.2089707277772301  0.3100145110352135  0.20215584276537088  1.0000
  C   C36       1.0  0.7910292719136572  0.6899854883390839  0.7978441573048577  1.0000
  C   C37       1.0  0.31813616278833656  0.4247047645275592  0.24058302222073433  1.0000
  C   C38       1.0  0.6818638369025509  0.5752952348467383  0.7594169778494941  1.0000
  C   C39       1.0  0.36791115114215567  0.5205219725599289  0.20250332331105986  1.0000
  C   C40       1.0  0.6320888489511957  0.47947802768940156  0.7974966767602641  1.0000
  C   C41       1.0  0.3101598486802851  0.5047022463120588  0.1237745501955681  1.0000
  C   C42       1.0  0.6898401510106023  0.4952977530622385  0.8762254498746603  1.0000
  C   C43       1.0  0.3615590148280382  0.6014451797704746  0.08295405069922462  1.0000
  C   C44       1.0  0.6384409851612439  0.39855482031450484  0.9170459487962686  1.0000
  C   C45       1.0  0.313683748090941  0.5841648516335185  0.005683156641297942  1.0000
  C   C46       1.0  0.6863162534633869  0.4158351486370282  0.9943168434365943  1.0000
  C   C47       1.0  0.21187520093035592  0.4679537693549845  0.962443581934153  1.0000
  C   C48       1.0  0.7881247991629954  0.532046230894346  0.03755641813717094  1.0000
  C   C49       1.0  0.17549814820854118  0.44591292478523675  0.8819847655978356  1.0000
  C   C50       1.0  0.824501851378277  0.5540870744247096  0.118015233896562  1.0000
  C   C51       1.0  0.08668778097595095  0.330771003551648  0.840894534965319  1.0000
  C   C52       1.0  0.9133122191174005  0.6692289966976824  0.15910546510600507  1.0000
  C   C53       1.0  0.022983839135344426  0.23542091179893093  0.8793905044888845  1.0000
  C   C54       1.0  0.9770161609580068  0.7645790884503995  0.12060949558243952  1.0000
  C   C55       1.0  0.05254284838251312  0.25345692635875045  0.9600502309110553  1.0000
  C   C56       1.0  0.9474571517108382  0.7465430738905802  0.03994976916026863  1.0000
  C   C57       1.0  0.9918965231133886  0.1576583326191592  0.0016165504736208164  1.0000
  C   C58       1.0  0.008103476979962727  0.8423416676301714  0.9983834495977033  1.0000
  C   C59       1.0  0.038337915220310104  0.17504885373640658  0.0792272368204801  1.0000
  C   C60       1.0  0.9616620844705772  0.8249511456378908  0.9207727632497484  1.0000
  C   C61       1.0  0.15321847355476215  0.3701765951061222  0.0021471836146630626  1.0000
  C   C62       1.0  0.8467815265385892  0.6298234051432083  0.997852816456661  1.0000
  C   C63       1.0  0.2019237294816117  0.38837587701107407  0.08297203588047372  1.0000
  C   C64       1.0  0.7980762702092756  0.6116241223632233  0.9170279641897547  1.0000
  C   C65       1.0  0.14892636313892677  0.29000181835931116  0.12251298715405952  1.0000
  C   C66       1.0  0.8510736369544246  0.7099981818900194  0.8774870129172646  1.0000
  C   C67       1.0  0.14082714258709836  0.243367803899455  0.542410668139129  1.0000
  C   C68       1.0  0.8591728571037889  0.7566321954748424  0.45758933193109946  1.0000
  N   N1        1.0  0.9502386016606117  0.11650135242780164  0.3411039831348079  1.0000
  N   N2        1.0  0.049761398030275704  0.8834986469464958  0.6588960169354207  1.0000
  N   N3        1.0  0.2134926566838114  0.03289120713598085  0.2796061664626022  1.0000
  N   N4        1.0  0.7865073430070759  0.9671087922383167  0.7203938336076262  1.0000
  N   N5        1.0  0.2861962594603673  0.3064551612251261  0.6104152554365199  1.0000
  N   N6        1.0  0.7138037406329839  0.6935448390242044  0.38958474463480436  1.0000
  O   O1        1.0  0.2306147308470708  0.3746076534002443  0.6600983681114571  1.0000
  O   O2        1.0  0.7693852692462805  0.6253923468490861  0.33990163195986706  1.0000
  O   O3        1.0  0.4555788706710984  0.2901270499010313  0.612726617934354  1.0000
  O   O4        1.0  0.544421129422253  0.7098729503482992  0.38727338213697  1.0000
  F   F1        1.0  0.9026451712626831  0.9020009544505814  0.3163835245311197  1.0000
  F   F2        1.0  0.09735482883066829  0.09799904579874931  0.6836164755402044  1.0000
  F   F3        1.0  0.14198910840648651  0.020200025988329075  0.41230370383233406  1.0000
  F   F4        1.0  0.8580108916868647  0.9797999742610013  0.58769629623899  1.0000
