data_image0
_chemical_formula_structural       H28C24N6O6S2
_chemical_formula_sum              "H28 C24 N6 O6 S2"
_cell_length_a       6.172216603061656
_cell_length_b       7.0345440728843585
_cell_length_c       14.576246547221842
_cell_angle_alpha    98.21598339095377
_cell_angle_beta     89.95455348277646
_cell_angle_gamma    93.92243412339432

_space_group_name_H-M_alt    "P 1"
_space_group_IT_number       1

loop_
  _space_group_symop_operation_xyz
  'x, y, z'

loop_
  _atom_site_type_symbol
  _atom_site_label
  _atom_site_symmetry_multiplicity
  _atom_site_fract_x
  _atom_site_fract_y
  _atom_site_fract_z
  _atom_site_occupancy
  H   H1        1.0  0.72665375455507  0.2677555471698439  0.2473406685028678  1.0000
  H   H2        1.0  0.2733462457268798  0.732244453082399  0.7526593313511659  1.0000
  H   H3        1.0  0.801058597410156  0.16589396333412693  0.08431132784999859  1.0000
  H   H4        1.0  0.19894140287179388  0.8341060369181161  0.9156886720040351  1.0000
  H   H5        1.0  0.14542638226972163  0.9038165691984077  0.04600853570921681  1.0000
  H   H6        1.0  0.8545736180085695  0.09618343105040225  0.9539914648306256  1.0000
  H   H7        1.0  0.07139572475508045  0.012849411742371735  0.20920046523259864  1.0000
  H   H8        1.0  0.9286042755268692  0.9871505885098711  0.790799534621435  1.0000
  H   H9        1.0  0.2669969391769996  0.6352607010395617  0.4113807944343859  1.0000
  H   H10       1.0  0.7330030594846471  0.36473929921083165  0.5886192054186262  1.0000
  H   H11       1.0  0.25817389196142865  0.8865294503542374  0.41828038683921664  1.0000
  H   H12       1.0  0.7418261082068925  0.11347054845484855  0.5817196135997359  1.0000
  H   H13       1.0  0.7003951713306401  0.5257946250112278  0.40145393282237  1.0000
  H   H14       1.0  0.29960482884134  0.47420537380129124  0.598546066930774  1.0000
  H   H15       1.0  0.9563316416776332  0.4384261427823425  0.40779731457744545  1.0000
  H   H16       1.0  0.04366835860065777  0.5615738574664675  0.5922026859623969  1.0000
  H   H17       1.0  0.6833288280703016  0.8792923711874476  0.41216241390859326  1.0000
  H   H18       1.0  0.3166711705876863  0.12070762905951263  0.5878375866302274  1.0000
  H   H19       1.0  0.9262098034352559  0.012212926306902412  0.39781870727817253  1.0000
  H   H20       1.0  0.07379019522639069  0.987787073943491  0.6021812925748397  1.0000
  H   H21       1.0  0.6191683987012505  0.6732637699896232  0.057014559144272246  1.0000
  H   H22       1.0  0.3808315998504264  0.32673622882104614  0.9429854406078502  1.0000
  H   H23       1.0  0.7601036046948496  0.6893802549186978  0.21666838384177206  1.0000
  H   H24       1.0  0.23989639558710016  0.3106197453335451  0.7833316160122616  1.0000
  H   H25       1.0  0.11913305942089748  0.5624501288947549  0.24439956497902923  1.0000
  H   H26       1.0  0.8808669408610521  0.4375498713574881  0.7556004348750045  1.0000
  H   H27       1.0  0.6640578185570215  0.579337361331252  0.8864996220218089  1.0000
  H   H28       1.0  0.3359421801046251  0.4206626389191414  0.11350037783120323  1.0000
  C   C1        1.0  0.39308074448595137  0.14811026279962627  0.23856305018042212  1.0000
  C   C2        1.0  0.6069192556860286  0.8518897360128928  0.7614369495727218  1.0000
  C   C3        1.0  0.5990280269300385  0.18832355011288288  0.20307158774042716  1.0000
  C   C4        1.0  0.4009719733519112  0.8116764501393602  0.7969284121136064  1.0000
  C   C5        1.0  0.6399350680017779  0.12964663549597633  0.10993577324905206  1.0000
  C   C6        1.0  0.36006493228017183  0.8703533647562667  0.8900642266049815  1.0000
  C   C7        1.0  0.47832027495560314  0.02890300493661309  0.04996305868906504  1.0000
  C   C8        1.0  0.5216797253263465  0.9710969953156299  0.9500369411649685  1.0000
  C   C9        1.0  0.27473604351659064  0.985382632842062  0.08846453483757337  1.0000
  C   C10       1.0  0.7252639567653592  0.014617367410181058  0.9115354650164603  1.0000
  C   C11       1.0  0.23141432405117762  0.044888136011272346  0.18146963242197323  1.0000
  C   C12       1.0  0.7685856762271134  0.9551118642375377  0.8185303681178692  1.0000
  C   C13       1.0  0.9611693671805757  0.7300520422272879  0.41091531059457087  1.0000
  C   C14       1.0  0.038830633101374044  0.2699479580249551  0.5890846892594628  1.0000
  C   C15       1.0  0.8966532470250981  0.5366039739709256  0.9918858833595134  1.0000
  C   C16       1.0  0.10334675325685164  0.4633960262813175  0.00811411649452031  1.0000
  C   C17       1.0  0.7758356600906029  0.6180869636981554  0.06897255387434295  1.0000
  C   C18       1.0  0.22416434019134684  0.3819130365540876  0.9310274459796908  1.0000
  C   C19       1.0  0.8544960340648299  0.6267568732635143  0.15810070132409576  1.0000
  C   C20       1.0  0.1455039662171197  0.37324312698872875  0.8418992985299378  1.0000
  C   C21       1.0  0.0574896801504002  0.5544489764772896  0.17394919707161627  1.0000
  C   C22       1.0  0.9425103201278908  0.4455510237715203  0.8260508034682261  1.0000
  C   C23       1.0  0.8207138839259205  0.5248981636566054  0.8992184192034302  1.0000
  C   C24       1.0  0.17928611635602928  0.4751018365956376  0.10078158065060351  1.0000
  N   N1        1.0  0.17767829657260922  0.7537399604921026  0.4163387785162122  1.0000
  N   N2        1.0  0.8223217037093407  0.24626003976014035  0.5836612213378216  1.0000
  N   N3        1.0  0.8639242078938902  0.5549154708300233  0.41272109248556393  1.0000
  N   N4        1.0  0.13607579238805945  0.44508452942221977  0.5872789073684698  1.0000
  N   N5        1.0  0.8462613609203073  0.8820553264314789  0.4036400173877748  1.0000
  N   N6        1.0  0.1537386392480139  0.11794467237760714  0.5963599830511779  1.0000
  O   O1        1.0  0.4291708354852388  0.4310018425206777  0.3749630386628623  1.0000
  O   O2        1.0  0.5708291647967109  0.5689981577315654  0.6250369611911714  1.0000
  O   O3        1.0  0.1009799875653501  0.21475226332192662  0.3661756370224252  1.0000
  O   O4        1.0  0.8990200127165996  0.7852477369303162  0.6338243628316085  1.0000
  O   O5        1.0  0.44801097147494096  0.10318401032783579  0.41154400267696195  1.0000
  O   O6        1.0  0.5519890288070087  0.8968159899244071  0.5884559971770718  1.0000
  S   S1        1.0  0.33932180576134136  0.2293768469103508  0.35670304280364085  1.0000
  S   S2        1.0  0.6606781945206084  0.7706231533418921  0.6432969570503929  1.0000
