data_image0
_chemical_formula_structural       H52C40N4O16
_chemical_formula_sum              "H52 C40 N4 O16"
_cell_length_a       8.373330206503763
_cell_length_b       10.081993018546763
_cell_length_c       12.231655914414896
_cell_angle_alpha    91.3282831354854
_cell_angle_beta     95.0276106742582
_cell_angle_gamma    90.78381382368721

_space_group_name_H-M_alt    "P 1"
_space_group_IT_number       1

loop_
  _space_group_symop_operation_xyz
  'x, y, z'

loop_
  _atom_site_type_symbol
  _atom_site_label
  _atom_site_symmetry_multiplicity
  _atom_site_fract_x
  _atom_site_fract_y
  _atom_site_fract_z
  _atom_site_occupancy
  H   H1        1.0  0.4018353635262451  0.038234447942261704  0.909143404581729  1.0000
  H   H2        1.0  0.5981646362204096  0.9617655522615407  0.09085659597267959  1.0000
  H   H3        1.0  0.5707579565318196  0.4142834265301834  0.04912897415245091  1.0000
  H   H4        1.0  0.4292420432105206  0.5857165736781303  0.9508710255842483  1.0000
  H   H5        1.0  0.7567140633350227  0.43659596115265864  0.901194959654467  1.0000
  H   H6        1.0  0.24328593760628808  0.5634040390621288  0.09880504015130809  1.0000
  H   H7        1.0  0.770657324044816  0.25334814244305914  0.7618951109301352  1.0000
  H   H8        1.0  0.2293426756975242  0.7466518577652547  0.23810488880656394  1.0000
  H   H9        1.0  0.10327177579792914  0.6181204633204849  0.48659137455251394  1.0000
  H   H10       1.0  0.8967282239444111  0.3818795368878289  0.5134086251841853  1.0000
  H   H11       1.0  0.9100349870535464  0.5096109907373749  0.1594729067723826  1.0000
  H   H12       1.0  0.08996501269310839  0.49038900946642733  0.8405270937820261  1.0000
  H   H13       1.0  0.6871993341707366  0.668380607760801  0.17593618132469754  1.0000
  H   H14       1.0  0.31280066676377477  0.33161939145724884  0.8240638192754254  1.0000
  H   H15       1.0  0.6755859200615293  0.8035478017250869  0.34718645391156344  1.0000
  H   H16       1.0  0.32441407968512537  0.19645219847871528  0.6528135466428452  1.0000
  H   H17       1.0  0.2552396426236607  0.33494741796082433  0.19821569958932347  1.0000
  H   H18       1.0  0.7447603571186795  0.6650525822474894  0.8017843001473758  1.0000
  H   H19       1.0  0.7424689951682774  0.9328834716341242  0.6114102099040578  1.0000
  H   H20       1.0  0.25753100457406286  0.06711652857418965  0.3885897898326415  1.0000
  H   H21       1.0  0.5171469611007691  0.15914907565944586  0.5314074043034005  1.0000
  H   H22       1.0  0.4828530386415711  0.8408509245488679  0.46859259543329873  1.0000
  H   H23       1.0  0.6178601739241615  0.3163898276085757  0.5633266890625733  1.0000
  H   H24       1.0  0.3821398258181787  0.683610172599738  0.4366733106741259  1.0000
  H   H25       1.0  0.7165834593533085  0.18627691341221803  0.49412371192179977  1.0000
  H   H26       1.0  0.28341654158800217  0.8137230868025696  0.5058762878839754  1.0000
  H   H27       1.0  0.7579289631809315  0.3316885554392019  0.33864614153499817  1.0000
  H   H28       1.0  0.24207103656140877  0.668311444769112  0.661353858201701  1.0000
  H   H29       1.0  0.663594484718401  0.4642602324334483  0.4072866320434334  1.0000
  H   H30       1.0  0.3364055150128256  0.5357397667826395  0.5927133676699041  1.0000
  H   H31       1.0  0.5861774323776043  0.4110590940002845  0.27132428694538113  1.0000
  H   H32       1.0  0.41382256736473605  0.5889409062080293  0.7286757127913182  1.0000
  H   H33       1.0  0.4252968783049655  0.3277577318687802  0.4010027044905068  1.0000
  H   H34       1.0  0.5747031214305754  0.672242267342796  0.5989972960405401  1.0000
  H   H35       1.0  0.5172009801248383  0.19778437028824267  0.3423920014583407  1.0000
  H   H36       1.0  0.4827990196218164  0.8022156299155596  0.6576079990960679  1.0000
  H   H37       1.0  0.09564300725473482  0.08533593978437386  0.8863430450116675  1.0000
  H   H38       1.0  0.9043569924764916  0.9146640594317137  0.11365695470166992  1.0000
  H   H39       1.0  0.976945016352157  0.09079242007296928  0.7558364793140546  1.0000
  H   H40       1.0  0.023054983394497654  0.909207580130833  0.244163521240354  1.0000
  H   H41       1.0  0.18077307247355653  0.03613909853553738  0.7630321149594024  1.0000
  H   H42       1.0  0.8192269272687838  0.9638609016727764  0.23696788477729688  1.0000
  H   H43       1.0  0.08619701383982677  0.7202537550487691  0.888183147019598  1.0000
  H   H44       1.0  0.9138029859025136  0.2797462451595446  0.11181685271710114  1.0000
  H   H45       1.0  0.15929396475228655  0.8670466682127533  0.9633788913616529  1.0000
  H   H46       1.0  0.8407060349943681  0.13295333199104895  0.036621109192755776  1.0000
  H   H47       1.0  0.24603351694867603  0.8183117272053247  0.8406167299130072  1.0000
  H   H48       1.0  0.7539664827979787  0.18168827299847748  0.15938327064140145  1.0000
  H   H49       1.0  0.9063919140931637  0.8946881437205895  0.853907422964814  1.0000
  H   H50       1.0  0.09360808564917651  0.10531185648772425  0.14609257677188509  1.0000
  H   H51       1.0  0.9941489945104726  0.8573930871334725  0.736875863961532  1.0000
  H   H52       1.0  0.0058510052361822355  0.14260691307032974  0.2631241365928767  1.0000
  C   C1        1.0  0.5944538258539064  0.023609516940008266  0.7428305143984653  1.0000
  C   C2        1.0  0.4055461738884339  0.9763904832683055  0.25716948533823397  1.0000
  C   C3        1.0  0.5881517372407894  0.13380634383524487  0.8272655696891024  1.0000
  C   C4        1.0  0.41184826250586526  0.8661936563685575  0.1727344308653062  1.0000
  C   C5        1.0  0.4808270479732863  0.12460563283326864  0.9081805484211617  1.0000
  C   C6        1.0  0.5191729517579402  0.8753943663828192  0.09181945129217581  1.0000
  C   C7        1.0  0.4751343193409663  0.22492223460220553  0.9884707321932371  1.0000
  C   C8        1.0  0.5248656804056885  0.7750777656015967  0.011529268361171574  1.0000
  C   C9        1.0  0.5766319476797797  0.33664936174331683  0.9863062063178518  1.0000
  C   C10       1.0  0.4233680520625605  0.6633506384649969  0.013693793418847359  1.0000
  C   C11       1.0  0.681156841585953  0.3481087115418472  0.9042347014581459  1.0000
  C   C12       1.0  0.3188431581563873  0.6518912886664666  0.09576529827855332  1.0000
  C   C13       1.0  0.6881390337737511  0.2463153799944679  0.8255964801360559  1.0000
  C   C14       1.0  0.31186096596858925  0.7536846202138459  0.1744035196006434  1.0000
  C   C15       1.0  0.3558160505285762  0.2169476647202626  0.07284881120970708  1.0000
  C   C16       1.0  0.644183949213764  0.7830523354880512  0.9271511885269922  1.0000
  C   C17       1.0  0.885706058668322  0.8022855059262065  0.5308917769120408  1.0000
  C   C18       1.0  0.11429394107401826  0.19771449428210733  0.4691082228246584  1.0000
  C   C19       1.0  0.8896574299770077  0.7203943771065676  0.4277550426742604  1.0000
  C   C20       1.0  0.11034256976533255  0.27960562310174625  0.5722449570624387  1.0000
  C   C21       1.0  0.013154668104450606  0.6300614563166355  0.41827235551951636  1.0000
  C   C22       1.0  0.9868453328257463  0.3699385429059259  0.5817276442628971  1.0000
  C   C23       1.0  0.02071633779003154  0.5534293067009799  0.3223208313129065  1.0000
  C   C24       1.0  0.9792836619523085  0.4465706935073338  0.6776791684237927  1.0000
  C   C25       1.0  0.9029138373806928  0.5684429541376959  0.2346211276562089  1.0000
  C   C26       1.0  0.09708616236164751  0.431557046070618  0.7653788720804903  1.0000
  C   C27       1.0  0.7786094363217176  0.6571987798759255  0.24399419947090453  1.0000
  C   C28       1.0  0.22139056342493707  0.34280122032787674  0.7560058010835042  1.0000
  C   C29       1.0  0.7713325172372154  0.7327565149657214  0.3402878087023545  1.0000
  C   C30       1.0  0.2286674825051249  0.26724348524259245  0.6597121910343448  1.0000
  C   C31       1.0  0.15428335580813085  0.45766196287549  0.31311939678203976  1.0000
  C   C32       1.0  0.8457166439230956  0.5423380363405975  0.6868806029312977  1.0000
  C   C33       1.0  0.6011775152879401  0.2327625555678468  0.5044345433172313  1.0000
  C   C34       1.0  0.39882248445871465  0.7672374446359554  0.49556545723717743  1.0000
  C   C35       1.0  0.6437115679580323  0.3794404480882787  0.3498841958254592  1.0000
  C   C36       1.0  0.35628843178862246  0.6205595521155235  0.6501158047289495  1.0000
  C   C37       1.0  0.0704183130736634  0.038576326806561825  0.8047833971231119  1.0000
  C   C38       1.0  0.9295816866686768  0.9614236734017518  0.19521660261358742  1.0000
  C   C39       1.0  0.13499330255065106  0.8205183203566468  0.8816943879271419  1.0000
  C   C40       1.0  0.8650066983906597  0.17948167985814056  0.11830561187863338  1.0000
  N   N1        1.0  0.5357520458861537  0.28198144076825726  0.39646592938862824  1.0000
  N   N2        1.0  0.4642479538561866  0.7180185594400564  0.6035340703480709  1.0000
  N   N3        1.0  0.015080010648195023  0.8996590345115376  0.8164022163506812  1.0000
  N   N4        1.0  0.9849199890941451  0.10034096569677604  0.1835977833860179  1.0000
  O   O1        1.0  0.72317300170956  0.02033531865721409  0.6923238385672719  1.0000
  O   O2        1.0  0.2768269980327802  0.9796646815510995  0.30767616116942736  1.0000
  O   O3        1.0  0.4761420808542185  0.9446011757651334  0.7269674818231073  1.0000
  O   O4        1.0  0.5238579188770079  0.05539882345095408  0.2730325178902302  1.0000
  O   O5        1.0  0.37861628306566764  0.3027688440526337  0.1532243693118579  1.0000
  O   O6        1.0  0.6213837166766726  0.69723115615568  0.8467756304248414  1.0000
  O   O7        1.0  0.24223325852808233  0.13333737407500287  0.06018386293111694  1.0000
  O   O8        1.0  0.7577667412031441  0.8666626251410849  0.9398161367822205  1.0000
  O   O9        1.0  0.7530038909760459  0.8681043891851921  0.5370351568564046  1.0000
  O   O10       1.0  0.2469961087706087  0.13189561101861033  0.4629648436980041  1.0000
  O   O11       1.0  0.0016446563106971262  0.8044102125497608  0.6025864839402376  1.0000
  O   O12       1.0  0.9983553434359574  0.19558978765404156  0.3974135166141711  1.0000
  O   O13       1.0  0.13856699649574158  0.38327271575012906  0.2239783006674305  1.0000
  O   O14       1.0  0.8614330032465987  0.6167272844581847  0.7760216990692688  1.0000
  O   O15       1.0  0.2692386194696865  0.45341855413332083  0.38556632925445533  1.0000
  O   O16       1.0  0.73076138026154  0.5465814450827667  0.6144336704588821  1.0000
