data_image0
_chemical_formula_structural       H136C104O20
_chemical_formula_sum              "H136 C104 O20"
_cell_length_a       11.943839358975572
_cell_length_b       10.092944660249435
_cell_length_c       18.002827736736148
_cell_angle_alpha    90.0
_cell_angle_beta     90.11083320809487
_cell_angle_gamma    90.0

_space_group_name_H-M_alt    "P 1"
_space_group_IT_number       1

loop_
  _space_group_symop_operation_xyz
  'x, y, z'

loop_
  _atom_site_type_symbol
  _atom_site_label
  _atom_site_symmetry_multiplicity
  _atom_site_fract_x
  _atom_site_fract_y
  _atom_site_fract_z
  _atom_site_occupancy
  H   H1        1.0  0.8437124017944294  0.21467918857552237  0.7993028577134467  1.0000
  H   H2        1.0  0.15628759776589382  0.7146791885631655  0.2006971419727471  1.0000
  H   H3        1.0  0.8343366458622409  0.37420408088383006  0.8363135045093181  1.0000
  H   H4        1.0  0.16566335453505582  0.8742040808714732  0.16368649573360364  1.0000
  H   H5        1.0  0.823668122935269  0.2696487260768098  0.9668332244768524  1.0000
  H   H6        1.0  0.17633187746230747  0.7696487260644529  0.03316677521060144  1.0000
  H   H7        1.0  0.8191897713461302  0.11284394577982881  0.9230384696955695  1.0000
  H   H8        1.0  0.18081022821419293  0.6128439457674719  0.0769615299906243  1.0000
  H   H9        1.0  0.6493570942176097  0.18723925411410072  0.8516641056015241  1.0000
  H   H10       1.0  0.35064290617996685  0.6872392541017438  0.14833589408592973  1.0000
  H   H11       1.0  0.6776037049359709  0.4385238886161313  0.9447868026167155  1.0000
  H   H12       1.0  0.3223962954616056  0.9385238886037744  0.05521319707073833  1.0000
  H   H13       1.0  0.6388188634287831  0.4290106292818007  0.849099444131999  1.0000
  H   H14       1.0  0.3611811361312603  0.9290106292694438  0.15090055610966266  1.0000
  H   H15       1.0  0.578286186287196  0.07222465737585693  0.9584404138006043  1.0000
  H   H16       1.0  0.4217138141103805  0.5722246573635  0.04155958588684956  1.0000
  H   H17       1.0  0.6361199508662324  0.19185783090899697  0.021550987448306507  1.0000
  H   H18       1.0  0.36388004869381113  0.6918578308966401  0.9784490127933552  1.0000
  H   H19       1.0  0.18571937363521115  0.7958849781111828  0.9073528394989328  1.0000
  H   H20       1.0  0.8142806259251121  0.2958849781235396  0.09264716018726099  1.0000
  H   H21       1.0  0.967603867070892  0.891866517950128  0.9216061072969437  1.0000
  H   H22       1.0  0.032396133326404654  0.3918665179624848  0.07839389294597805  1.0000
  H   H23       1.0  0.9149531461621156  0.02986049960097094  0.8169904287240447  1.0000
  H   H24       1.0  0.08504685339820768  0.529860499588614  0.1830095709621491  1.0000
  H   H25       1.0  0.04919172362163174  0.01877789945152797  0.7767799241079673  1.0000
  H   H26       1.0  0.9508082759386915  0.5187778994391711  0.2232200755782265  1.0000
  H   H27       1.0  0.008839893469379995  0.12573173268232685  0.9321863771352256  1.0000
  H   H28       1.0  0.9911601060906635  0.62573173266997  0.06781362310643602  1.0000
  H   H29       1.0  0.22336704113076147  0.12436219183321864  0.7714971389877543  1.0000
  H   H30       1.0  0.7766329592665353  0.6243621918208617  0.22850286125516753  1.0000
  H   H31       1.0  0.27504998934008357  0.2723322679876926  0.8164009485262894  1.0000
  H   H32       1.0  0.7249500110572131  0.7723322679753357  0.18359905171663232  1.0000
  H   H33       1.0  0.9916982430533581  0.4200349583503244  0.7615586803199644  1.0000
  H   H34       1.0  0.008301756506965212  0.9200349583379676  0.23844131936622928  1.0000
  H   H35       1.0  0.01626517266442259  0.25390192121955696  0.7361949407484805  1.0000
  H   H36       1.0  0.9837348277331538  0.7539019212072  0.2638050589389734  1.0000
  H   H37       1.0  0.12510343910580146  0.35064848655501657  0.7777420467581554  1.0000
  H   H38       1.0  0.874896561291775  0.8506484865426597  0.2222579529292984  1.0000
  H   H39       1.0  0.1580299687468043  0.42924696764293274  0.9951470827055394  1.0000
  H   H40       1.0  0.8419700308135188  0.9292469676305759  0.004852916980654289  1.0000
  H   H41       1.0  0.984367925604358  0.34069359495675855  0.968444142180384  1.0000
  H   H42       1.0  0.015632074792938613  0.8406935949444017  0.031555858062537676  1.0000
  H   H43       1.0  0.015059831766009866  0.5828450673239516  0.9546887545040091  1.0000
  H   H44       1.0  0.9849401686315665  0.08284506733630853  0.04531124518344471  1.0000
  H   H45       1.0  0.8968189316476708  0.5278922632939835  0.904108904738541  1.0000
  H   H46       1.0  0.10318106874962588  0.02789226330634044  0.09589109550438073  1.0000
  H   H47       1.0  0.02383573329143471  0.5659096103533815  0.8572338741758986  1.0000
  H   H48       1.0  0.9761642671058619  0.06590961036573838  0.1427661260670232  1.0000
  H   H49       1.0  0.15715001351596786  0.19677422564515654  0.004415634335353193  1.0000
  H   H50       1.0  0.8428499860440757  0.6967742256327997  0.9955843659063085  1.0000
  H   H51       1.0  0.2872366241454975  0.2401862153814771  0.9647440509621943  1.0000
  H   H52       1.0  0.712763376252079  0.7401862153691202  0.035255948725259646  1.0000
  H   H53       1.0  0.29489192773453105  0.4486875369321684  0.9034524874740545  1.0000
  H   H54       1.0  0.7051080718255125  0.9486875369198116  0.09654751276760709  1.0000
  H   H55       1.0  0.0099810504194944  0.8094665912691225  0.8408601557274984  1.0000
  H   H56       1.0  0.990018949140549  0.30946659128147924  0.15913984451416324  1.0000
  H   H57       1.0  0.9242896340965899  0.03505027540607334  0.4570541330491823  1.0000
  H   H58       1.0  0.07571036546345342  0.5350502753937165  0.5429458671924794  1.0000
  H   H59       1.0  0.8652770651246351  0.9170171611513883  0.5207908454243336  1.0000
  H   H60       1.0  0.13472293527266163  0.41701716116374515  0.4792091548185882  1.0000
  H   H61       1.0  0.8537506886180212  0.9195281924562378  0.35073140332911984  1.0000
  H   H62       1.0  0.1462493109420223  0.41952819246859474  0.6492685969125418  1.0000
  H   H63       1.0  0.8643919337707975  0.6769743538682138  0.3493906359541958  1.0000
  H   H64       1.0  0.13560806578924603  0.17697435388057073  0.6506093642874657  1.0000
  H   H65       1.0  0.825178688927418  0.6692339379014359  0.44496437794139193  1.0000
  H   H66       1.0  0.1748213114698787  0.16923393791379285  0.5550356223015298  1.0000
  H   H67       1.0  0.659720639830135  0.892762001904934  0.29766023300188765  1.0000
  H   H68       1.0  0.3402793597301883  0.392762001917291  0.702339766684306  1.0000
  H   H69       1.0  0.6683047205850449  0.7334826662783905  0.3349979687855543  1.0000
  H   H70       1.0  0.3316952798125316  0.23348266629074743  0.6650020309018996  1.0000
  H   H71       1.0  0.4732849680637733  0.5423329458604922  0.35244439453625187  1.0000
  H   H72       1.0  0.5267150314962701  0.04233294587284903  0.6475556057054098  1.0000
  H   H73       1.0  0.6029141657568174  0.576156773444182  0.39745677000249796  1.0000
  H   H74       1.0  0.3970858338035057  0.07615677345653889  0.6025432296836958  1.0000
  H   H75       1.0  0.48599050107430336  0.5220020447303032  0.4494432845271815  1.0000
  H   H76       1.0  0.5140094984857401  0.02200204474266006  0.5505567157144801  1.0000
  H   H77       1.0  0.5119557822458806  0.6922429989651138  0.25742553667093615  1.0000
  H   H78       1.0  0.48804421815141613  0.19224299897747066  0.7425744635719856  1.0000
  H   H79       1.0  0.48497111619899047  0.8590314909926126  0.23463132370917134  1.0000
  H   H80       1.0  0.5150288833613327  0.3590314910049695  0.7653686759770225  1.0000
  H   H81       1.0  0.37801694093573585  0.7584757152340128  0.2753616534606349  1.0000
  H   H82       1.0  0.6219830586245875  0.25847571524636964  0.7246383462255588  1.0000
  H   H83       1.0  0.5884692173684878  0.07848991911349902  0.3160727795095837  1.0000
  H   H84       1.0  0.41153078219155576  0.5784899191011421  0.6839272207320779  1.0000
  H   H85       1.0  0.4546961849167746  0.08874085711848785  0.2751163533020121  1.0000
  H   H86       1.0  0.5453038154805221  0.588740857106131  0.7248836469409096  1.0000
  H   H87       1.0  0.5195392201708159  0.7627467026862451  0.4656807379832559  1.0000
  H   H88       1.0  0.48046077938922754  0.2627467026986019  0.5343192622584058  1.0000
  H   H89       1.0  0.34465827037185864  0.6773818781476443  0.4922756307203116  1.0000
  H   H90       1.0  0.655341730025438  0.1773818781600012  0.5077243695226102  1.0000
  H   H91       1.0  0.2065742124843965  0.6603370150486181  0.4011225980682196  1.0000
  H   H92       1.0  0.79342578791318  0.16033701506097492  0.5988774016192342  1.0000
  H   H93       1.0  0.3475118198654437  0.9102600171963044  0.5025954688448099  1.0000
  H   H94       1.0  0.6524881796948796  0.4102600172086614  0.49740453084138375  1.0000
  H   H95       1.0  0.21673947370780594  0.8677372842925659  0.4634072785280719  1.0000
  H   H96       1.0  0.7832605258522376  0.3677372843049229  0.5365927217135898  1.0000
  H   H97       1.0  0.49443967871520556  0.9814587262143166  0.431013015085927  1.0000
  H   H98       1.0  0.5055603208448379  0.48145872622667363  0.5689869851557346  1.0000
  H   H99       1.0  0.31665160236121  0.3117570120435236  0.40531851386447987  1.0000
  H   H100      1.0  0.6833483980360867  0.8117570120311667  0.5946814863784419  1.0000
  H   H101      1.0  0.4917957423921061  0.2986223180109573  0.33877911466118393  1.0000
  H   H102      1.0  0.5082042580051906  0.7986223179986004  0.6612208855817377  1.0000
  H   H103      1.0  0.5350731693855018  0.21814218388328976  0.41998911766551095  1.0000
  H   H104      1.0  0.46492683101179494  0.7181421838709329  0.5800108825774107  1.0000
  H   H105      1.0  0.22923677054352037  0.835670422648642  0.31442656941385444  1.0000
  H   H106      1.0  0.7707632290168028  0.33567042266099895  0.6855734302723392  1.0000
  H   H107      1.0  0.27999389346300124  0.9846745429152475  0.27007712114883886  1.0000
  H   H108      1.0  0.7200061069342955  0.4846745429276044  0.7299228790940828  1.0000
  H   H109      1.0  0.6782706710138671  0.8386152837373052  0.46526321295715506  1.0000
  H   H110      1.0  0.3217293293837094  0.33861528374966215  0.5347367867302988  1.0000
  H   H111      1.0  0.6842052127620349  0.9951137213261787  0.42138613054970475  1.0000
  H   H112      1.0  0.31579478763526164  0.4951137213385356  0.578613869693217  1.0000
  H   H113      1.0  0.270715662262241  0.13167881175791116  0.1252737524941974  1.0000
  H   H114      1.0  0.7292843381353356  0.6316788117455543  0.8747262471932563  1.0000
  H   H115      1.0  0.13191211742871511  0.1722440733125982  0.2265067004962762  1.0000
  H   H116      1.0  0.8680878829685816  0.6722440733002413  0.7734932997466456  1.0000
  H   H117      1.0  0.14765013426643472  0.37440585648733854  0.30464715624602523  1.0000
  H   H118      1.0  0.8523498661308619  0.8744058564749817  0.6953528439968966  1.0000
  H   H119      1.0  0.44491770684140003  0.48840422849184384  0.1842374627392339  1.0000
  H   H120      1.0  0.5550822935561764  0.988404228479487  0.81576253694822  1.0000
  H   H121      1.0  0.30374355494559285  0.5324656946912443  0.28466702456086124  1.0000
  H   H122      1.0  0.6962564454517038  0.032465694703601194  0.7153329756820604  1.0000
  H   H123      1.0  0.4279962345976786  0.2899559522530539  0.10571714797461199  1.0000
  H   H124      1.0  0.5720037657996181  0.7899559522406969  0.8942828522683097  1.0000
  H   H125      1.0  0.7699767254318357  0.4714128245187875  0.37779132343394656  1.0000
  H   H126      1.0  0.23002327412820772  0.9714128245064306  0.622208676807715  1.0000
  H   H127      1.0  0.6467931235435971  0.24194805304120728  0.19293251482371435  1.0000
  H   H128      1.0  0.35320687601644635  0.7419480530288505  0.8070674854179473  1.0000
  H   H129      1.0  0.8040006670129165  0.0836776459625538  0.2088386429505263  1.0000
  H   H130      1.0  0.1959993333843802  0.5836776459501969  0.7911613572923955  1.0000
  H   H131      1.0  0.945530362159925  0.12029543813727739  0.3102129438049124  1.0000
  H   H132      1.0  0.05446963740039826  0.6202954381249205  0.6897870558812814  1.0000
  H   H133      1.0  0.9278188149721073  0.3125899255571693  0.39424986776386295  1.0000
  H   H134      1.0  0.07218118542518942  0.8125899255448125  0.6057501324790588  1.0000
  H   H135      1.0  0.6305377016176419  0.4371601547938099  0.27628930692916537  1.0000
  H   H136      1.0  0.36946229794240154  0.937160154781453  0.7237106933124963  1.0000
  C   C1        1.0  0.004460181054962807  0.024566529228732762  0.8300944969641403  1.0000
  C   C2        1.0  0.9955398185053606  0.5245665292163759  0.16990550272205346  1.0000
  C   C3        1.0  0.02671742591132438  0.897769076817277  0.8746873721672321  1.0000
  C   C4        1.0  0.9732825744859723  0.39776907682963386  0.1253126280756896  1.0000
  C   C5        1.0  0.14565253516765084  0.8925285041419588  0.9007934722947522  1.0000
  C   C6        1.0  0.8543474652299257  0.39252850415431584  0.0992065273927018  1.0000
  C   C7        1.0  0.20863228587756094  0.002578533904232942  0.9054829171096092  1.0000
  C   C8        1.0  0.7913677145197358  0.502578533891876  0.09451708313331242  1.0000
  C   C9        1.0  0.16997022514334126  0.14185630538913668  0.8886410370563688  1.0000
  C   C10       1.0  0.8300297744167022  0.6418563053767798  0.1113589631852929  1.0000
  C   C11       1.0  0.1966164555696063  0.2361524391773585  0.9538178014570418  1.0000
  C   C12       1.0  0.803383543990717  0.7361524391650016  0.046182198229152  1.0000
  C   C13       1.0  0.15194252013287612  0.3768067227177298  0.9410437718479207  1.0000
  C   C14       1.0  0.8480574802644206  0.8768067227053729  0.05895622839500118  1.0000
  C   C15       1.0  0.027549164060517824  0.37887290664144946  0.9187901643560787  1.0000
  C   C16       1.0  0.9724508354995257  0.8788729066290926  0.08120983588558273  1.0000
  C   C17       1.0  0.9945299292440868  0.2819985223152566  0.8547569774691508  1.0000
  C   C18       1.0  0.005470071153489742  0.7819985223028997  0.14524302221830304  1.0000
  C   C19       1.0  0.042295835092685405  0.14423648687319984  0.8758330511926754  1.0000
  C   C20       1.0  0.9577041653046114  0.6442364868608429  0.1241669490502463  1.0000
  C   C21       1.0  0.8649539797799948  0.2738549514579119  0.8488279572593949  1.0000
  C   C22       1.0  0.13504602061730198  0.773854951445555  0.15117204298352688  1.0000
  C   C23       1.0  0.7997862061341612  0.21859023449212847  0.9151689719395316  1.0000
  C   C24       1.0  0.2002137934258824  0.7185902344797717  0.08483102830213002  1.0000
  C   C25       1.0  0.6739466422949626  0.2348928107509716  0.9042106275561618  1.0000
  C   C26       1.0  0.3260533572650809  0.7348928107386148  0.09578937268549977  1.0000
  C   C27       1.0  0.6333963329339127  0.3786823230144951  0.9028300226442614  1.0000
  C   C28       1.0  0.36660366662613075  0.8786823230021381  0.09716997759740012  1.0000
  C   C29       1.0  0.5132964690399718  0.3681034787233424  0.9273592601924588  1.0000
  C   C30       1.0  0.48670353135760464  0.8681034787109856  0.07264073949499493  1.0000
  C   C31       1.0  0.6006962504720336  0.17645699049696223  0.9658896165522303  1.0000
  C   C32       1.0  0.399303749925263  0.6764569904846053  0.034110383690691484  1.0000
  C   C33       1.0  0.9883190298858497  0.5214780697975139  0.9074580531520825  1.0000
  C   C34       1.0  0.011680970511726738  0.021478069809870794  0.0925419465353712  1.0000
  C   C35       1.0  0.33098180546639705  0.0005210719147914188  0.895419669201753  1.0000
  C   C36       1.0  0.6690181949311794  0.5005210719024346  0.10458033048570081  1.0000
  C   C37       1.0  0.25225909257741236  0.16855893470815442  0.8240209115944263  1.0000
  C   C38       1.0  0.7477409078198843  0.6685589346957975  0.1759790886484954  1.0000
  C   C39       1.0  0.03533363777565469  0.3291442043751283  0.778443118008701  1.0000
  C   C40       1.0  0.9646663617843887  0.8291442043627714  0.2215568822329606  1.0000
  C   C41       1.0  0.4988802606266752  0.08351252071357033  0.32880852138490607  1.0000
  C   C42       1.0  0.5011197389333684  0.5835125207012134  0.6711914788567557  1.0000
  C   C43       1.0  0.4759355573470345  0.21060364755308864  0.37296387927614794  1.0000
  C   C44       1.0  0.5240644430502622  0.7106036475407317  0.6270361209667737  1.0000
  C   C45       1.0  0.3571846173298756  0.2154577532327674  0.3989827822995251  1.0000
  C   C46       1.0  0.6428153830677009  0.7154577532204105  0.6010172173879288  1.0000
  C   C47       1.0  0.29442970098081306  0.10531549372170347  0.4038868210258312  1.0000
  C   C48       1.0  0.7055702994167634  0.6053154937093466  0.5961131786616227  1.0000
  C   C49       1.0  0.3333957140252875  0.9661763794669417  0.38707533300721425  1.0000
  C   C50       1.0  0.6666042863720093  0.46617637947929846  0.6129246672357075  1.0000
  C   C51       1.0  0.3071238128616575  0.8715378064683265  0.4520620150183535  1.0000
  C   C52       1.0  0.6928761866986657  0.37153780648068324  0.5479379846678402  1.0000
  C   C53       1.0  0.350636979427291  0.7306165453420568  0.4384585635569768  1.0000
  C   C54       1.0  0.6493630201327525  0.2306165453544136  0.5615414366846848  1.0000
  C   C55       1.0  0.47491063234986475  0.7274116996712591  0.41577160835569443  1.0000
  C   C56       1.0  0.525089368047432  0.22741169968361596  0.5842283918872273  1.0000
  C   C57       1.0  0.50846277183668  0.8262003063230822  0.35270934746117516  1.0000
  C   C58       1.0  0.4915372285608964  0.3262003063354391  0.6472906522262787  1.0000
  C   C59       1.0  0.46103417858625595  0.9637126217790652  0.3744609932421472  1.0000
  C   C60       1.0  0.5389658209737874  0.4637126217914222  0.6255390069995145  1.0000
  C   C61       1.0  0.6379144156264757  0.8339914418783679  0.347180527123516  1.0000
  C   C62       1.0  0.36208558393384765  0.33399144189072477  0.6528194725626777  1.0000
  C   C63       1.0  0.7030840395962887  0.8891768450237602  0.4136439128729398  1.0000
  C   C64       1.0  0.2969159599640346  0.3891768450361171  0.5863560868132539  1.0000
  C   C65       1.0  0.8290292650025279  0.8722306904814077  0.40332264696049214  1.0000
  C   C66       1.0  0.17097073539476865  0.37223069049376445  0.5966773532824297  1.0000
  C   C67       1.0  0.8694866783362156  0.7283929356071901  0.40278532933965333  1.0000
  C   C68       1.0  0.1305133220613609  0.22839293561954702  0.5972146703478005  1.0000
  C   C69       1.0  0.9893948593278877  0.7391615134265115  0.4280781252794226  1.0000
  C   C70       1.0  0.010605141069688765  0.23916151343886838  0.5719218744080312  1.0000
  C   C71       1.0  0.9016048141251579  0.9311690132429334  0.4653255768182466  1.0000
  C   C72       1.0  0.09839518543516529  0.43116901325529033  0.5346744228679471  1.0000
  C   C73       1.0  0.5117230125643092  0.5844612983198716  0.40244739640226906  1.0000
  C   C74       1.0  0.4882769878332673  0.08446129833222848  0.5975526032851848  1.0000
  C   C75       1.0  0.17198396249518802  0.10698665516841482  0.3936381988853786  1.0000
  C   C76       1.0  0.8280160379023885  0.6069866551560579  0.6063618008020752  1.0000
  C   C77       1.0  0.2512047415583013  0.9396181123780804  0.32226412625434575  1.0000
  C   C78       1.0  0.7487952588389954  0.4396181123904373  0.6777358739885759  1.0000
  C   C79       1.0  0.4674843889624807  0.7815307410795869  0.2758474773559645  1.0000
  C   C80       1.0  0.532515611434816  0.28153074109194376  0.7241525228869573  1.0000
  C   C81       1.0  0.3754151516478118  0.42032796996383764  0.19358438880707776  1.0000
  C   C82       1.0  0.6245848479122316  0.9203279699514807  0.8064156114345838  1.0000
  C   C83       1.0  0.36614172623465796  0.30756334593072887  0.1489791033257889  1.0000
  C   C84       1.0  0.6338582741626387  0.8075633459183721  0.8510208969171328  1.0000
  C   C85       1.0  0.2779733380603454  0.21893834003696888  0.16060123900860615  1.0000
  C   C86       1.0  0.7220266614999779  0.718938340024612  0.8393987606775876  1.0000
  C   C87       1.0  0.19964763092109403  0.24249503513472287  0.2166441082730186  1.0000
  C   C88       1.0  0.8003523694762027  0.7424950361131571  0.7833558919699032  1.0000
  C   C89       1.0  0.20886743759413606  0.3557295269972548  0.26091227042895665  1.0000
  C   C90       1.0  0.7911325619661872  0.855729526984898  0.739087729257237  1.0000
  C   C91       1.0  0.2966885785178737  0.444976957783994  0.24932083888249992  1.0000
  C   C92       1.0  0.703311421879423  0.9449769577716371  0.7506791613604219  1.0000
  C   C93       1.0  0.6991707689009019  0.36719563464924504  0.283940797585754  1.0000
  C   C94       1.0  0.3008292314966747  0.8671956346368882  0.7160592021016998  1.0000
  C   C95       1.0  0.777745958938751  0.38680139656126067  0.3405340548601402  1.0000
  C   C96       1.0  0.2222540414588254  0.8868013965489038  0.6594659448273136  1.0000
  C   C97       1.0  0.7084798078760958  0.2576428165945909  0.23691377111790915  1.0000
  C   C98       1.0  0.2915201916842276  0.757642816582234  0.7630862285682846  1.0000
  C   C99       1.0  0.8663885483052103  0.2979776934520192  0.3501367020571575  1.0000
  C   C100      1.0  0.13361145209208655  0.7979776934396624  0.6498632981857642  1.0000
  C   C101      1.0  0.796938592226361  0.1683136703097723  0.24627736639779596  1.0000
  C   C102      1.0  0.20306140733368255  0.6683136702974154  0.7537226338438657  1.0000
  C   C103      1.0  0.8758741165915683  0.18895978866418028  0.302633868260786  1.0000
  C   C104      1.0  0.12412588296847514  0.6889597886518234  0.6973661319808757  1.0000
  O   O1        1.0  0.21560247569483956  0.449397754835991  0.887514361074264  1.0000
  O   O2        1.0  0.7843975247024572  0.9493977548236342  0.11248563916865767  1.0000
  O   O3        1.0  0.4382002564205828  0.4489848148922682  0.91742557290142  1.0000
  O   O4        1.0  0.5617997439769937  0.9489848148799115  0.0825744267860336  1.0000
  O   O5        1.0  0.4960592812950538  0.2523077937828568  0.9627320387831226  1.0000
  O   O6        1.0  0.5039407182649897  0.7523077937704998  0.037267961458539105  1.0000
  O   O7        1.0  0.40329835605017256  0.9270104607676282  0.9200302096494611  1.0000
  O   O8        1.0  0.5967016435101508  0.427010460779985  0.07996979003673255  1.0000
  O   O9        1.0  0.35579853099791797  0.09984096157474584  0.846078618615172  1.0000
  O   O10       1.0  0.6442014685624053  0.599840961562389  0.1539213810710217  1.0000
  O   O11       1.0  0.2855411034608394  0.6598746821857046  0.38465340374161194  1.0000
  O   O12       1.0  0.7144588960992041  0.15987468219806147  0.6153465965000497  1.0000
  O   O13       1.0  0.06458284036218316  0.6581084434317948  0.41889696607105487  1.0000
  O   O14       1.0  0.9354171600351134  0.15810844344415165  0.5811030341718668  1.0000
  O   O15       1.0  0.0063495827549145826  0.8551451177566148  0.4633448184502133  1.0000
  O   O16       1.0  0.9936504176426619  0.35514511776897173  0.5366551812372404  1.0000
  O   O17       1.0  0.09935822022161324  0.17999880819272243  0.41814029200077846  1.0000
  O   O18       1.0  0.9006417801759634  0.6799988081803655  0.5818597076866754  1.0000
  O   O19       1.0  0.14737690775201578  0.007553034576741255  0.34425112608282255  1.0000
  O   O20       1.0  0.8526230926452809  0.5075530345643844  0.6557488741600992  1.0000
