data_image0
_chemical_formula_structural       H58C60N2O6P2
_chemical_formula_sum              "H58 C60 N2 O6 P2"
_cell_length_a       9.668510270002546
_cell_length_b       10.672523019152258
_cell_length_c       12.147737430158536
_cell_angle_alpha    81.95372405199453
_cell_angle_beta     79.46938978147378
_cell_angle_gamma    84.50185960428088

_space_group_name_H-M_alt    "P 1"
_space_group_IT_number       1

loop_
  _space_group_symop_operation_xyz
  'x, y, z'

loop_
  _atom_site_type_symbol
  _atom_site_label
  _atom_site_symmetry_multiplicity
  _atom_site_fract_x
  _atom_site_fract_y
  _atom_site_fract_z
  _atom_site_occupancy
  H   H1        1.0  0.8705920666120057  0.19894129151792017  0.43161147850693904  1.0000
  H   H2        1.0  0.12940793347788887  0.8010587088307142  0.5683885212201166  1.0000
  H   H3        1.0  0.22737056174085074  0.9261989435513313  0.3891114363832693  1.0000
  H   H4        1.0  0.7726294381629336  0.07380105666821767  0.6108885641876556  1.0000
  H   H5        1.0  0.4571067964915688  0.14783309695940597  0.40450772054887246  1.0000
  H   H6        1.0  0.5428932035983255  0.8521669033892283  0.5954922791781833  1.0000
  H   H7        1.0  0.6680914298925344  0.0005508626566644696  0.4136778163103863  1.0000
  H   H8        1.0  0.33190857001124985  0.9994491375628843  0.5863221842605386  1.0000
  H   H9        1.0  0.6108553072869484  0.8630714413434495  0.10832481462490662  1.0000
  H   H10       1.0  0.38914469290402137  0.13692855806523396  0.8916751850928502  1.0000
  H   H11       1.0  0.40005590578615285  0.013063677594695493  0.0985600939705517  1.0000
  H   H12       1.0  0.599944094404817  0.9869363218139879  0.9014399057472051  1.0000
  H   H13       1.0  0.48319356727451396  0.29085583349320215  0.06787279518375451  1.0000
  H   H14       1.0  0.5168064326292703  0.7091441667263467  0.9321272053871704  1.0000
  H   H15       1.0  0.4770650721232965  0.4102001699982183  0.8796818303469988  1.0000
  H   H16       1.0  0.5229349280676733  0.5897998294104652  0.12031816937075795  1.0000
  H   H17       1.0  0.0303880219682802  0.36461697913865115  0.921371907213063  1.0000
  H   H18       1.0  0.969611977935504  0.6353830210808977  0.07862809335786186  1.0000
  H   H19       1.0  0.03728273667543852  0.2470613344512279  0.11113597094276227  1.0000
  H   H20       1.0  0.962717263329421  0.7529386648283701  0.8888640296188636  1.0000
  H   H21       1.0  0.5047414169684293  0.34999941987207184  0.2426821139402235  1.0000
  H   H22       1.0  0.49525858322254046  0.6500005795366118  0.7573178857775332  1.0000
  H   H23       1.0  0.5283685123648567  0.537271812173214  0.3296347199192061  1.0000
  H   H24       1.0  0.47163148753892753  0.4627281880463349  0.6703652806517187  1.0000
  H   H25       1.0  0.0975891583426007  0.5252283265476783  0.5017309314260895  1.0000
  H   H26       1.0  0.9024108417472937  0.4747716738009561  0.49826906830096623  1.0000
  H   H27       1.0  0.07306564902528186  0.3331638461629948  0.41088830275389154  1.0000
  H   H28       1.0  0.9269343511656879  0.6668361532456888  0.5891116969638652  1.0000
  H   H29       1.0  0.8876151372707686  0.9218134745798706  0.3519778320851686  1.0000
  H   H30       1.0  0.11238486263301577  0.0781865256396783  0.6480221684857562  1.0000
  H   H31       1.0  0.934300005479164  0.760000629244494  0.3298427803513102  1.0000
  H   H32       1.0  0.06569999461073033  0.23999937110414044  0.6701572193757455  1.0000
  H   H33       1.0  0.7809738596678641  0.7991160580763018  0.4301650647076158  1.0000
  H   H34       1.0  0.21902614023592015  0.20088394214324715  0.5698349358633091  1.0000
  H   H35       1.0  0.08007486721663308  0.4224965725708454  0.7318245458602046  1.0000
  H   H36       1.0  0.919925132687151  0.5775034276487035  0.2681754547107203  1.0000
  H   H37       1.0  0.15706159653110122  0.5673124884608612  0.6668201548699826  1.0000
  H   H38       1.0  0.8429384034737583  0.43268751081873685  0.33317984569164333  1.0000
  H   H39       1.0  0.05425567629443208  0.5596564201712121  0.8059487156524698  1.0000
  H   H40       1.0  0.9457443237954624  0.44034358017742226  0.1940512840745859  1.0000
  H   H41       1.0  0.5306446785666178  0.6724818480536534  0.45945121387945365  1.0000
  H   H42       1.0  0.46935532143824177  0.32751815122594463  0.5405487866821723  1.0000
  H   H43       1.0  0.40928874993553854  0.808886058340339  0.4783183027218944  1.0000
  H   H44       1.0  0.5907112501543559  0.19111394200829532  0.5216816970051613  1.0000
  H   H45       1.0  0.4491377547067023  0.7512892628260545  0.3439589378197095  1.0000
  H   H46       1.0  0.5508622453831921  0.24871073752257983  0.6560410619073462  1.0000
  H   H47       1.0  0.1825663326674335  0.7304010829371415  0.2666375660901874  1.0000
  H   H48       1.0  0.817433667422461  0.26959891741149294  0.7333624336368684  1.0000
  H   H49       1.0  0.2562732981694417  0.564448645538224  0.1376646239269535  1.0000
  H   H50       1.0  0.7437267019204526  0.43555135481041024  0.8623353758001022  1.0000
  H   H51       1.0  0.2725819705167999  0.6233403570655006  0.9305902935860011  1.0000
  H   H52       1.0  0.7274180295730945  0.3766596432831336  0.06940970614105475  1.0000
  H   H53       1.0  0.2149611046900264  0.8460417379470615  0.8520839643094142  1.0000
  H   H54       1.0  0.7850388941804866  0.15395826227366374  0.14791603625662814  1.0000
  H   H55       1.0  0.13718690310275378  0.010551266959411363  0.9812802768269899  1.0000
  H   H56       1.0  0.8628130969871406  0.989448733389223  0.01871972290006588  1.0000
  H   H57       1.0  0.1204623533042074  0.953212475938147  0.188060630703469  1.0000
  H   H58       1.0  0.879537645853491  0.04678752347171304  0.8119393690094053  1.0000
  C   C1        1.0  0.9280400856255753  0.11142130225075539  0.4612883727724055  1.0000
  C   C2        1.0  0.07195991343104759  0.8885786980990554  0.5387116269497678  1.0000
  C   C3        1.0  0.058036051864479424  0.07402188119836142  0.3960132328268692  1.0000
  C   C4        1.0  0.9419639481403801  0.9259781180812366  0.6039867677347567  1.0000
  C   C5        1.0  0.12818730449910437  0.9599609340650511  0.43812750843126047  1.0000
  C   C6        1.0  0.8718126955057551  0.04003906521454682  0.5618724921303654  1.0000
  C   C7        1.0  0.4139686160016549  0.09247771673392446  0.25094993762688805  1.0000
  C   C8        1.0  0.5860313841893151  0.9075222826747591  0.7490500620908688  1.0000
  C   C9        1.0  0.49042319188997524  0.08556046531528445  0.3392574571885808  1.0000
  C   C10       1.0  0.5095768081999192  0.91443953503335  0.660742542538475  1.0000
  C   C11       1.0  0.6094627443988058  0.001783138655264492  0.3450161002078478  1.0000
  C   C12       1.0  0.3905372556060538  0.9982168606243337  0.6549839003537781  1.0000
  C   C13       1.0  0.6529886080934793  0.9218764613542547  0.2607409728870549  1.0000
  C   C14       1.0  0.34701139191138025  0.07812353792534327  0.7392590276745711  1.0000
  C   C15       1.0  0.5759224224867643  0.9264605554428381  0.1724065867084587  1.0000
  C   C16       1.0  0.4240775776031302  0.07353944490579621  0.827593413018597  1.0000
  C   C17       1.0  0.4582414698029143  0.010655062229110389  0.1677443721219963  1.0000
  C   C18       1.0  0.5417585302019453  0.9893449370504876  0.8322556284396295  1.0000
  C   C19       1.0  0.25856319481352147  0.2638487002781642  0.10375099148543444  1.0000
  C   C20       1.0  0.7414368052763729  0.73615130007047  0.8962490082416213  1.0000
  C   C21       1.0  0.38304326415101697  0.3086408803735616  0.0374120206047554  1.0000
  C   C22       1.0  0.6169567359388775  0.6913591199750727  0.9625879791223002  1.0000
  C   C23       1.0  0.38072053812848794  0.37551733768353623  0.9312451026077089  1.0000
  C   C24       1.0  0.6192794619614064  0.6244826626650981  0.06875489711934689  1.0000
  C   C25       1.0  0.253061852256547  0.3988300016374858  0.8897343198949839  1.0000
  C   C26       1.0  0.7469381479344228  0.6011699977711977  0.11026567982277288  1.0000
  C   C27       1.0  0.12939267160588008  0.3507937715665384  0.9533831129511385  1.0000
  C   C28       1.0  0.8706073284840142  0.6492062287820959  0.04661688677591732  1.0000
  C   C29       1.0  0.13294823909566075  0.284037763692873  0.06007386806368489  1.0000
  C   C30       1.0  0.8670517608081236  0.7159622365266759  0.93992613250724  1.0000
  C   C31       1.0  0.2860947165645957  0.328452603717257  0.3200594140146431  1.0000
  C   C32       1.0  0.7139052833391885  0.6715473965022919  0.6799405865562818  1.0000
  C   C33       1.0  0.41356211267750764  0.3873306699634351  0.2987686747995924  1.0000
  C   C34       1.0  0.5864378863791154  0.6126693303863757  0.7012313249225808  1.0000
  C   C35       1.0  0.4277195154001175  0.4945154802457235  0.3483532489806227  1.0000
  C   C36       1.0  0.5722804846047421  0.5054845190338746  0.6516467515810032  1.0000
  C   C37       1.0  0.312519494659444  0.5441781665489658  0.42115718696486726  1.0000
  C   C38       1.0  0.6874805052443402  0.45582183367058304  0.5788428136060576  1.0000
  C   C39       1.0  0.18505533325306578  0.4853082486754555  0.4443175089297294  1.0000
  C   C40       1.0  0.814944665617447  0.5146917515452699  0.555682491636313  1.0000
  C   C41       1.0  0.1720853265899459  0.3790563595096278  0.3939255609362173  1.0000
  C   C42       1.0  0.8279146724666769  0.6209436408401829  0.606074438785956  1.0000
  C   C43       1.0  0.8462547156810577  0.8303714465529791  0.3486057270602791  1.0000
  C   C44       1.0  0.15374528440883684  0.16962855379565503  0.6513942726667766  1.0000
  C   C45       1.0  0.12869394183678218  0.5063609578660714  0.746482000982547  1.0000
  C   C46       1.0  0.8713060583541877  0.4936390415426121  0.25351799873520964  1.0000
  C   C47       1.0  0.4341219793610786  0.7237914286123835  0.4357154065942208  1.0000
  C   C48       1.0  0.5658780207288157  0.2762085717362508  0.5642845931328349  1.0000
  C   C49       1.0  0.1885552660108889  0.7553238161039915  0.17578678919846707  1.0000
  C   C50       1.0  0.8114447339939708  0.24467618317560658  0.8242132113631586  1.0000
  C   C51       1.0  0.2310190658643016  0.6624538409381842  0.10361193520612694  1.0000
  C   C52       1.0  0.7689809340394826  0.33754615928136467  0.896388065364798  1.0000
  C   C53       1.0  0.24014524478532803  0.6955338816055551  0.9870412018788169  1.0000
  C   C54       1.0  0.7598547552195316  0.304466117674043  0.012958798682808964  1.0000
  C   C55       1.0  0.2070105450955184  0.8205812361243451  0.9430491707323617  1.0000
  C   C56       1.0  0.7929894548082659  0.17941876409520374  0.05695082983856309  1.0000
  C   C57       1.0  0.16355259543267311  0.9129712105606276  0.01551427834245591  1.0000
  C   C58       1.0  0.8364474046572213  0.08702878978800663  0.9844857213845999  1.0000
  C   C59       1.0  0.1538332996564918  0.8803634936790453  0.13197992293294886  1.0000
  C   C60       1.0  0.8461667005344778  0.11963650572963833  0.8680200767848077  1.0000
  N   N1        1.0  0.10535782434090382  0.14437410407066922  0.292472521097606  1.0000
  N   N2        1.0  0.894642174529609  0.8556258961500561  0.7075274794684365  1.0000
  O   O1        1.0  0.767668221015109  0.8376492959504226  0.2580661392480469  1.0000
  O   O2        1.0  0.23233177917586087  0.16235070345826097  0.7419338604697099  1.0000
  O   O3        1.0  0.25907886730279883  0.4707041859697868  0.7869851029917214  1.0000
  O   O4        1.0  0.7409211327870957  0.5292958143788477  0.2130148967353342  1.0000
  O   O5        1.0  0.3147111914287866  0.6490832687897937  0.4728495257698911  1.0000
  O   O6        1.0  0.6852888086611076  0.35091673155884073  0.5271504739571647  1.0000
  P   P1        1.0  0.25525610015795425  0.19703111070550158  0.2483762284474512  1.0000
  P   P2        1.0  0.7447439000330153  0.8029688887031817  0.7516237712703057  1.0000
