data_image0
_chemical_formula_structural       H15BC17N2O4
_chemical_formula_sum              "H15 B1 C17 N2 O4"
_cell_length_a       3.849401016904462
_cell_length_b       8.288097768963729
_cell_length_c       11.609048696744361
_cell_angle_alpha    101.46590660292746
_cell_angle_beta     98.72875771865712
_cell_angle_gamma    99.42687027781936

_space_group_name_H-M_alt    "P 1"
_space_group_IT_number       1

loop_
  _space_group_symop_operation_xyz
  'x, y, z'

loop_
  _atom_site_type_symbol
  _atom_site_label
  _atom_site_symmetry_multiplicity
  _atom_site_fract_x
  _atom_site_fract_y
  _atom_site_fract_z
  _atom_site_occupancy
  H   H1        1.0  0.8077680084742722  0.023104645885308948  0.2021020772756906  1.0000
  H   H2        1.0  0.9009442311249509  0.753468894236453  0.0876802753492022  1.0000
  H   H3        1.0  0.1713992327619949  0.9945856361884794  0.8083773705681929  1.0000
  H   H4        1.0  0.07335458903632096  0.26474725740715116  0.9227956724570868  1.0000
  H   H5        1.0  0.7631752682309073  0.4373028089057599  0.2912726944162194  1.0000
  H   H6        1.0  0.24638079636970722  0.5789006135883057  0.7091649238618162  1.0000
  H   H7        1.0  0.02015644983371135  0.5274171645282936  0.974479254182243  1.0000
  H   H8        1.0  0.4920915045310987  0.6488670349521902  0.19834396645040023  1.0000
  H   H9        1.0  0.34602571316645125  0.9216663387082237  0.28534532590295175  1.0000
  H   H10       1.0  0.7750210846117969  0.8491011621932963  0.6352651605073988  1.0000
  H   H11       1.0  0.8926002744995908  0.584155352951601  0.5344653528173462  1.0000
  H   H12       1.0  0.4606417028631727  0.33148331032403955  0.7952423107509287  1.0000
  H   H13       1.0  0.5984795123821722  0.05470963116036912  0.7103422426345247  1.0000
  H   H14       1.0  0.3241721680779145  0.15738507761404316  0.35920379902708854  1.0000
  H   H15       1.0  0.18724127659342163  0.42011589165653457  0.45839961171276633  1.0000
  B   B1        1.0  0.11460538656143013  0.6854215093329802  0.8617643857043182  1.0000
  C   C1        1.0  0.9362942878493209  0.16161578046111152  0.07056588619146127  1.0000
  C   C2        1.0  0.8899083146416653  0.016311942110564855  0.11585008592038112  1.0000
  C   C3        1.0  0.9419206864325529  0.8648720728744516  0.05052330724572032  1.0000
  C   C4        1.0  0.04358022460778805  0.8532455135978987  0.938246880935204  1.0000
  C   C5        1.0  0.08838980309439631  0.0004078832616893488  0.8945196110427511  1.0000
  C   C6        1.0  0.035751717053641274  0.15239732234733777  0.9584899130430187  1.0000
  C   C7        1.0  0.8763348900339235  0.3232982395501269  0.13884678800648026  1.0000
  C   C8        1.0  0.5509611250093087  0.6999781310959977  0.2947782907378391  1.0000
  C   C9        1.0  0.47295196905685344  0.8533416328180573  0.3448608885101286  1.0000
  C   C10       1.0  0.5512717232354082  0.9149785362963736  0.4696198087816226  1.0000
  C   C11       1.0  0.7057583852886288  0.8141469437411591  0.538114563537089  1.0000
  C   C12       1.0  0.7744454305034117  0.6623141982445799  0.4809947418322757  1.0000
  C   C13       1.0  0.43099189443035113  0.28581163519660785  0.6988544732773462  1.0000
  C   C14       1.0  0.5098317505559469  0.13149986271036654  0.6502455837984165  1.0000
  C   C15       1.0  0.4728117902486134  0.07789809861038818  0.5256593041176136  1.0000
  C   C16       1.0  0.35533534040005876  0.18597214540422724  0.45617446013637514  1.0000
  C   C17       1.0  0.2796328893514611  0.3366977241363956  0.5124244706688618  1.0000
  N   N1        1.0  0.6992283192889601  0.6047818694449368  0.36145962748947835  1.0000
  N   N2        1.0  0.3169152280440099  0.38813244012186743  0.6315351309167919  1.0000
  O   O1        1.0  0.801249671038069  0.3181155584386304  0.24617128695421586  1.0000
  O   O2        1.0  0.893681739536415  0.45336079711950705  0.09998281112428112  1.0000
  O   O3        1.0  0.20386280052611996  0.6900999316971619  0.752613536303302  1.0000
  O   O4        1.0  0.09723282158871449  0.5371894083126818  0.8985241268377081  1.0000
