data_image0
_chemical_formula_structural       H56C72N24O56
_chemical_formula_sum              "H56 C72 N24 O56"
_cell_length_a       25.46878721305598
_cell_length_b       5.506203595432473
_cell_length_c       14.898047069575972
_cell_angle_alpha    90.0
_cell_angle_beta     95.26526263994006
_cell_angle_gamma    90.0

_space_group_name_H-M_alt    "P 1"
_space_group_IT_number       1

loop_
  _space_group_symop_operation_xyz
  'x, y, z'

loop_
  _atom_site_type_symbol
  _atom_site_label
  _atom_site_symmetry_multiplicity
  _atom_site_fract_x
  _atom_site_fract_y
  _atom_site_fract_z
  _atom_site_occupancy
  H   H1        1.0  0.09577731880481084  0.3100978923874846  0.07978438016510034  1.0000
  H   H2        1.0  0.5957769367186218  0.8100962328563615  0.07978438566343052  1.0000
  H   H3        1.0  0.9042226810755681  0.3100978923874846  0.42021562017608144  1.0000
  H   H4        1.0  0.40422306316107326  0.8100962328563615  0.42021561400641605  1.0000
  H   H5        1.0  0.9042221851339676  0.6899041297984614  0.92021598947566  1.0000
  H   H6        1.0  0.40422266462579  0.18990285990648556  0.9202156250955695  1.0000
  H   H7        1.0  0.09577781480329108  0.6899041297984614  0.579784010085978  1.0000
  H   H8        1.0  0.5957773357057693  0.18990285990648556  0.5797843745267618  1.0000
  H   H9        1.0  0.142897777105079  0.8797327679670623  0.2709500790995454  1.0000
  H   H10       1.0  0.6428975763519472  0.3797330327077699  0.27095084213676984  1.0000
  H   H11       1.0  0.8571022227752999  0.8797327679670623  0.22904992124163637  1.0000
  H   H12       1.0  0.35710242352843174  0.3797330327077699  0.2290491582044119  1.0000
  H   H13       1.0  0.8571024285470538  0.12026415633256092  0.7290518074651162  1.0000
  H   H14       1.0  0.35710221769185196  0.620268079595366  0.7290498607877113  1.0000
  H   H15       1.0  0.14289757178518944  0.12026415633256092  0.7709481928285503  1.0000
  H   H16       1.0  0.6428977822454067  0.620268079595366  0.7709501387739267  1.0000
  H   H17       1.0  0.2268095843583093  0.0011364291006585136  0.9719073407970024  1.0000
  H   H18       1.0  0.726809353604524  0.5011348785375366  0.9719076790263971  1.0000
  H   H19       1.0  0.7731904159739339  0.0011364291006585136  0.5280926594966641  1.0000
  H   H20       1.0  0.27319064633273465  0.5011348785375366  0.5280923205352409  1.0000
  H   H21       1.0  0.7731902533263411  0.9988653043200844  0.028093244667426083  1.0000
  H   H22       1.0  0.273190410375705  0.49886420332851034  0.02809253732741645  1.0000
  H   H23       1.0  0.2268097469476546  0.9988653043200844  0.4719067550631138  1.0000
  H   H24       1.0  0.72680958950399  0.49886420332851034  0.47190746234243014  1.0000
  H   H25       1.0  0.031602445895286345  0.7398056826992526  0.9330037003457918  1.0000
  H   H26       1.0  0.5316025258685554  0.2398054625323549  0.9330037172278569  1.0000
  H   H27       1.0  0.9683975540426563  0.7398056826992526  0.5669962998871814  1.0000
  H   H28       1.0  0.46839747446300395  0.2398054625323549  0.5669962823944744  1.0000
  H   H29       1.0  0.9683974815562519  0.2601954659265505  0.0669963807466369  1.0000
  H   H30       1.0  0.46839746732244963  0.7601950776887747  0.06699626725805992  1.0000
  H   H31       1.0  0.03160251832344299  0.2601954659265505  0.4330036189232097  1.0000
  H   H32       1.0  0.5316025325572454  0.7601950776887747  0.43300373241178663  1.0000
  H   H33       1.0  0.07374183396298849  0.9882890372077844  0.9098503229452063  1.0000
  H   H34       1.0  0.5737418607446552  0.48828901136715563  0.9098503698997797  1.0000
  H   H35       1.0  0.926258165974954  0.9882890372077844  0.5901496772877668  1.0000
  H   H36       1.0  0.42625813919260347  0.48828901136715563  0.5901496296618584  1.0000
  H   H37       1.0  0.9262581019504776  0.011711853527082471  0.0901495506972302  1.0000
  H   H38       1.0  0.42625814072119167  0.5117114943474403  0.09014961049001524  1.0000
  H   H39       1.0  0.07374189832420189  0.011711853527082471  0.4098504497046449  1.0000
  H   H40       1.0  0.5737418591585034  0.5117114943474403  0.40985038917983135  1.0000
  H   H41       1.0  0.020720768823749718  0.9553480213415243  0.15997295545879264  1.0000
  H   H42       1.0  0.5207208373848689  0.4553480390880959  0.1599729927348129  1.0000
  H   H43       1.0  0.979279231450246  0.9553480213415243  0.34002704427174724  1.0000
  H   H44       1.0  0.47927916249551017  0.4553480390880959  0.34002700760636884  1.0000
  H   H45       1.0  0.9792791193902838  0.04465279856414188  0.8400269215811157  1.0000
  H   H46       1.0  0.4792791625242919  0.5446524829717002  0.8400270075522646  1.0000
  H   H47       1.0  0.020720880546974886  0.04465279856414188  0.6599730779805223  1.0000
  H   H48       1.0  0.5207208374136506  0.5446524829717002  0.6599729926807085  1.0000
  H   H49       1.0  0.00018452088302625637  0.7212884142704974  0.08060941371228325  1.0000
  H   H50       1.0  0.5001846045171567  0.22128816504546608  0.0806095412395599  1.0000
  H   H51       1.0  0.9998154789973526  0.7212884142704974  0.4193905866288985  1.0000
  H   H52       1.0  0.49981539536253833  0.22128816504546608  0.41939045843028666  1.0000
  H   H53       1.0  0.999815440481488  0.27871279065543964  0.9193902886567334  1.0000
  H   H54       1.0  0.4998153859274215  0.7787123769917969  0.9193904562482076  1.0000
  H   H55       1.0  0.00018455945645454936  0.27871279065543964  0.5806097115762398  1.0000
  H   H56       1.0  0.5001846140105211  0.7787123769917969  0.5806095439847656  1.0000
  C   C1        1.0  0.2303278995551898  0.827204848323858  0.006449566829709131  1.0000
  C   C2        1.0  0.7303275841970572  0.3272045173728257  0.006450059172503835  1.0000
  C   C3        1.0  0.7696721003245052  0.827204848323858  0.49355043284013744  1.0000
  C   C4        1.0  0.2696724156833216  0.3272045173728257  0.49354994116867795  1.0000
  C   C5        1.0  0.7696723480858432  0.1727912659802897  0.9935509676287859  1.0000
  C   C6        1.0  0.2696720845744244  0.672795837602702  0.9935503506074371  1.0000
  C   C7        1.0  0.23032765185141554  0.1727912659802897  0.5064490319328522  1.0000
  C   C8        1.0  0.7303279153635182  0.672795837602702  0.5064496496255362  1.0000
  C   C9        1.0  0.18920519742085987  0.761194052736585  0.0655112218200946  1.0000
  C   C10       1.0  0.6892048874290635  0.26119291723847726  0.06551156396217721  1.0000
  C   C11       1.0  0.8107948024588352  0.761194052736585  0.43448877784975204  1.0000
  C   C12       1.0  0.3107951124513153  0.26119291723847726  0.4344884363790046  1.0000
  C   C13       1.0  0.8107942577488112  0.2388078822749601  0.9344888751779863  1.0000
  C   C14       1.0  0.3107947906921092  0.7388067294450426  0.9344887358327612  1.0000
  C   C15       1.0  0.18920574218844755  0.2388078822749601  0.5655111243836517  1.0000
  C   C16       1.0  0.6892052092451494  0.7388067294450426  0.5655112637288768  1.0000
  C   C17       1.0  0.1552477569310091  0.5644597382084064  0.0432039636089867  1.0000
  C   C18       1.0  0.6552476264506267  0.06446000476524748  0.043204436080813  1.0000
  C   C19       1.0  0.8447522433429866  0.5644597382084064  0.45679603612155323  1.0000
  C   C20       1.0  0.3447523734297522  0.06446000476524748  0.45679556426036877  1.0000
  C   C21       1.0  0.8447520377579585  0.4355439984074252  0.9567950506003076  1.0000
  C   C22       1.0  0.3447522221574979  0.9355410403409544  0.9567960362847103  1.0000
  C   C23       1.0  0.15524796217930015  0.4355439984074252  0.5432049489613303  1.0000
  C   C24       1.0  0.6552477777804447  0.9355410403409544  0.5432039639482629  1.0000
  C   C25       1.0  0.1199669938210783  0.46899715843093  0.0995652901258374  1.0000
  C   C26       1.0  0.6199669384052341  0.968996470531151  0.09956553183808235  1.0000
  C   C27       1.0  0.8800330060593007  0.46899715843093  0.40043471021534444  1.0000
  C   C28       1.0  0.38003306147514476  0.968996470531151  0.4004344685030995  1.0000
  C   C29       1.0  0.8800320894799114  0.5310057028086252  0.9004327721884327  1.0000
  C   C30       1.0  0.3800329781139396  0.03100361565664042  0.9004346536258941  1.0000
  C   C31       1.0  0.11996791045803114  0.5310057028086252  0.5995672280445405  1.0000
  C   C32       1.0  0.619967021824003  0.03100361565664042  0.5995653466070792  1.0000
  C   C33       1.0  0.11592787909511694  0.5881018825177788  0.1808800990347811  1.0000
  C   C34       1.0  0.6159276170715171  0.08810085053927229  0.18088070161412298  1.0000
  C   C35       1.0  0.884072120785262  0.5881018825177788  0.31911990130640067  1.0000
  C   C36       1.0  0.3840723828088618  0.08810085053927229  0.3191192987270588  1.0000
  C   C37       1.0  0.8840703074638032  0.41190335604033596  0.8191196597185039  1.0000
  C   C38       1.0  0.3840720861367905  0.9118989686769162  0.8191198436851639  1.0000
  C   C39       1.0  0.1159296924741393  0.41190335604033596  0.6808803405144693  1.0000
  C   C40       1.0  0.6159279138004683  0.9118989686769162  0.680880155876474  1.0000
  C   C41       1.0  0.14605457967460728  0.7906651841954018  0.20652681163222075  1.0000
  C   C42       1.0  0.6460544979096934  0.29066459353730006  0.20652711708286803  1.0000
  C   C43       1.0  0.8539454202050877  0.7906651841954018  0.29347318803762584  1.0000
  C   C44       1.0  0.3539455023643023  0.29066459353730006  0.2934728826476719  1.0000
  C   C45       1.0  0.8539443967313655  0.20933481663412198  0.7934731304526154  1.0000
  C   C46       1.0  0.353945378028659  0.7093356488379596  0.7934730936824509  1.0000
  C   C47       1.0  0.14605560320657704  0.20933481663412198  0.706526869780358  1.0000
  C   C48       1.0  0.6460546223035842  0.7093356488379596  0.7065269066112156  1.0000
  C   C49       1.0  0.18249394749754155  0.8714811569954504  0.14902418504238618  1.0000
  C   C50       1.0  0.6824937643868144  0.37148025033014503  0.14902407752510985  1.0000
  C   C51       1.0  0.817506052777138  0.8714811569954504  0.35097581535948896  1.0000
  C   C52       1.0  0.3175062358871813  0.37148025033014503  0.3509759222054301  1.0000
  C   C53       1.0  0.8175053294232437  0.12851948856141393  0.8509762469826267  1.0000
  C   C54       1.0  0.3175060102344475  0.6285196360829775  0.8509757484683635  1.0000
  C   C55       1.0  0.18249467051469886  0.12851948856141393  0.6490237532503464  1.0000
  C   C56       1.0  0.6824939900971118  0.6285196360829775  0.6490242511539678  1.0000
  C   C57       1.0  0.0393883829544575  0.9358639869899805  0.9446121022493117  1.0000
  C   C58       1.0  0.5393884263076921  0.43586380496188326  0.9446121624943674  1.0000
  C   C59       1.0  0.9606116169828011  0.9358639869899805  0.5553878973123262  1.0000
  C   C60       1.0  0.46061157363025035  0.43586380496188326  0.5553878377386058  1.0000
  C   C61       1.0  0.9606115593163738  0.06413720703915642  0.05538782002901664  1.0000
  C   C62       1.0  0.4606115747720606  0.564136727994713  0.055387825890756484  1.0000
  C   C63       1.0  0.03938844095762187  0.06413720703915642  0.4446121797015233  1.0000
  C   C64       1.0  0.5393884251076344  0.564136727994713  0.4446121737790901  1.0000
  C   C65       1.0  0.008895761081991931  0.9174466404021933  0.08875898565810679  1.0000
  C   C66       1.0  0.5088958162642452  0.41744645110956263  0.08875904772396205  1.0000
  C   C67       1.0  0.9911042387983869  0.9174466404021933  0.411241014683075  1.0000
  C   C68       1.0  0.49110418361613384  0.41744645110956263  0.4112409526172197  1.0000
  C   C69       1.0  0.9911041779592079  0.0825545045913431  0.9112408622878037  1.0000
  C   C70       1.0  0.49110418286041757  0.5825540854793004  0.91124095646974  1.0000
  C   C71       1.0  0.008895821978050753  0.0825545045913431  0.5887591372738342  1.0000
  C   C72       1.0  0.5088958170775248  0.5825540854793004  0.5887590437632332  1.0000
  N   N1        1.0  0.15385055146403515  0.4586076824501555  0.9521091201390267  1.0000
  N   N2        1.0  0.6538503934260813  0.9586070435859769  0.95210924402806  1.0000
  N   N3        1.0  0.846149448868208  0.4586076824501555  0.5478908801546397  1.0000
  N   N4        1.0  0.34614960651186133  0.9586070435859769  0.5478907562049131  1.0000
  N   N5        1.0  0.8461488669700263  0.5413982280773001  0.04789090676639705  1.0000
  N   N6        1.0  0.34614965339391096  0.04139412683342635  0.04789075274015902  1.0000
  N   N7        1.0  0.1538511329096688  0.5413982280773001  0.4521090929034496  1.0000
  N   N8        1.0  0.6538503468807685  0.04139412683342635  0.452109247661716  1.0000
  N   N9        1.0  0.07835983366896997  0.4949418910446138  0.24160579288346248  1.0000
  N   N10       1.0  0.5783597454023928  0.9949416680749733  0.2416059080464921  1.0000
  N   N11       1.0  0.9216401666057095  0.4949418910446138  0.25839420751841263  1.0000
  N   N12       1.0  0.42164025487160284  0.9949416680749733  0.2583940916840478  1.0000
  N   N13       1.0  0.9216384874213904  0.505065187256588  0.7583936731134016  1.0000
  N   N14       1.0  0.4216401568132222  0.005058903020423487  0.7583941684902291  1.0000
  N   N15       1.0  0.07836151251586813  0.505065187256588  0.7416063264482364  1.0000
  N   N16       1.0  0.5783598431247203  0.005058903020423487  0.741605831742744  1.0000
  N   N17       1.0  0.21560544139938387  0.07996855408057532  0.1802929826224715  1.0000
  N   N18       1.0  0.7156053599761121  0.5799684437112027  0.1802932364410022  1.0000
  N   N19       1.0  0.784394558480995  0.07996855408057532  0.3197070177187103  1.0000
  N   N20       1.0  0.2843946399042669  0.5799684437112027  0.3197067639001796  1.0000
  N   N21       1.0  0.7843942399801432  0.9200302862397356  0.8197074197009628  1.0000
  N   N22       1.0  0.28439454425545807  0.42003221637472843  0.8197068840359732  1.0000
  N   N23       1.0  0.21560575995779926  0.9200302862397356  0.6802925805320105  1.0000
  N   N24       1.0  0.7156054556824843  0.42003221637472843  0.680293116197  1.0000
  O   O1        1.0  0.15427537069648226  0.601832025017906  0.8884385969863037  1.0000
  O   O2        1.0  0.6542752900460824  0.10183172130887407  0.8884388354855116  1.0000
  O   O3        1.0  0.8457246292414604  0.601832025017906  0.6115614032466695  1.0000
  O   O4        1.0  0.3457247102861607  0.10183172130887407  0.6115611648081547  1.0000
  O   O5        1.0  0.8457229550536784  0.3981745665595571  0.1115607992486847  1.0000
  O   O6        1.0  0.34572476408263886  0.8981699104084011  0.11156136981776191  1.0000
  O   O7        1.0  0.1542770448260165  0.3981745665595571  0.3884392004211619  1.0000
  O   O8        1.0  0.65427523579774  0.8981699104084011  0.3884386305234199  1.0000
  O   O9        1.0  0.15046062354126385  0.23480739271473527  0.9454860021088879  1.0000
  O   O10       1.0  0.6504607574961042  0.7348068410249577  0.9454859903825017  1.0000
  O   O11       1.0  0.8495393763966785  0.23480739271473527  0.5545139981240853  1.0000
  O   O12       1.0  0.34953924244115453  0.7348068410249577  0.5545140091791363  1.0000
  O   O13       1.0  0.8495391071072604  0.765198675816322  0.05451245451926468  1.0000
  O   O14       1.0  0.3495401976298375  0.26519346491496937  0.05451321251725149  1.0000
  O   O15       1.0  0.15046089316673514  0.765198675816322  0.44548754521127526  1.0000
  O   O16       1.0  0.6504598022505415  0.26519346491496937  0.44548678782393025  1.0000
  O   O17       1.0  0.06669485785689296  0.2768067241945652  0.23536065065157571  1.0000
  O   O18       1.0  0.566694770261974  0.7768065538927919  0.23536065113767396  1.0000
  O   O19       1.0  0.9333051420228021  0.2768067241945652  0.26463934901827085  1.0000
  O   O20       1.0  0.433305229617721  0.7768065538927919  0.26463934853217264  1.0000
  O   O21       1.0  0.9333022776795648  0.7231986505735511  0.7646387389114456  1.0000
  O   O22       1.0  0.43330516739898  0.2231940462607385  0.7646393899099989  1.0000
  O   O23       1.0  0.06669772225769387  0.7231986505735511  0.7353612606501924  1.0000
  O   O24       1.0  0.5666948325382787  0.2231940462607385  0.735360609651639  1.0000
  O   O25       1.0  0.061123614041578296  0.639848490695572  0.2951608173795392  1.0000
  O   O26       1.0  0.5611236227982564  0.1398483704160088  0.2951609723125269  1.0000
  O   O27       1.0  0.9388763858381166  0.639848490695572  0.2048391822903074  1.0000
  O   O28       1.0  0.4388763774764231  0.1398483704160088  0.20483902808934817  1.0000
  O   O29       1.0  0.9388761547985305  0.3601587782996319  0.7048391386138972  1.0000
  O   O30       1.0  0.4388763179959024  0.8601524767316575  0.7048390484093016  1.0000
  O   O31       1.0  0.061123845138728226  0.3601587782996319  0.7951608609477407  1.0000
  O   O32       1.0  0.5611236819420401  0.8601524767316575  0.7951609518236716  1.0000
  O   O33       1.0  0.21298629297721403  0.1515024836153882  0.25846159308808125  1.0000
  O   O34       1.0  0.7129863416157001  0.6515025366980174  0.25846181054325024  1.0000
  O   O35       1.0  0.7870137069031649  0.1515024836153882  0.2415384072531005  1.0000
  O   O36       1.0  0.2870136582639949  0.6515025366980174  0.24153818912659636  1.0000
  O   O37       1.0  0.7870137219796545  0.8484968397963947  0.7415384726108505  1.0000
  O   O38       1.0  0.28701362252836354  0.34849859195031885  0.7415382983477184  1.0000
  O   O39       1.0  0.2129862783519047  0.8484968397963947  0.758461527011481  1.0000
  O   O40       1.0  0.7129863774095789  0.34849859195031885  0.758461701885255  1.0000
  O   O41       1.0  0.24354206833702766  0.17516160695548114  0.12599814955335534  1.0000
  O   O42       1.0  0.7435419174067429  0.6751606938551663  0.12599828460489615  1.0000
  O   O43       1.0  0.7564579315426674  0.17516160695548114  0.37400185011649123  1.0000
  O   O44       1.0  0.25645808247363594  0.6751606938551663  0.3740017157362856  1.0000
  O   O45       1.0  0.7564577935740526  0.8248370154288275  0.8740022235041266  1.0000
  O   O46       1.0  0.2564579588260639  0.32483883296355226  0.8740018282061778  1.0000
  O   O47       1.0  0.24354220636389004  0.8248370154288275  0.6259977767288466  1.0000
  O   O48       1.0  0.7435420415061792  0.32483883296355226  0.6259981720874886  1.0000
  O   O49       1.0  0.05297309351249011  0.9782053563126469  0.0392295434319989  1.0000
  O   O50       1.0  0.5529731419827424  0.4782051815490831  0.03922959573871026  1.0000
  O   O51       1.0  0.947026906367205  0.9782053563126469  0.46077045623784774  1.0000
  O   O52       1.0  0.4470268582912532  0.4782051815490831  0.4607704039918296  1.0000
  O   O53       1.0  0.947026852522468  0.02179712172277083  0.9607705908631552  1.0000
  O   O54       1.0  0.44702687866598806  0.5217963212227239  0.9607706393150613  1.0000
  O   O55       1.0  0.052973147415474466  0.02179712172277083  0.539229409369818  1.0000
  O   O56       1.0  0.5529731216655712  0.5217963212227239  0.5392293603072699  1.0000
