data_image0
_chemical_formula_structural       H64C64N8O4F24P4
_chemical_formula_sum              "H64 C64 N8 O4 F24 P4"
_cell_length_a       9.222088294928005
_cell_length_b       11.74685249663694
_cell_length_c       16.685595684066506
_cell_angle_alpha    106.30106488794948
_cell_angle_beta     103.37746077243771
_cell_angle_gamma    98.61087610499726

_space_group_name_H-M_alt    "P 1"
_space_group_IT_number       1

loop_
  _space_group_symop_operation_xyz
  'x, y, z'

loop_
  _atom_site_type_symbol
  _atom_site_label
  _atom_site_symmetry_multiplicity
  _atom_site_fract_x
  _atom_site_fract_y
  _atom_site_fract_z
  _atom_site_occupancy
  H   H1        1.0  0.05073532289020415  0.8462227914714282  0.8688495259445906  1.0000
  H   H2        1.0  0.9492646772892125  0.15377720902101785  0.1311504737929179  1.0000
  H   H3        1.0  0.9779223138702929  0.8872213553081122  0.00527560156133338  1.0000
  H   H4        1.0  0.022077686147845433  0.11277864432375981  0.994724398177092  1.0000
  H   H5        1.0  0.44239978072999614  0.9111894343930718  0.14811316410886236  1.0000
  H   H6        1.0  0.5576002192881423  0.08881056523880028  0.8518868356295631  1.0000
  H   H7        1.0  0.5144406717446057  0.8696231570806191  0.01121749594357722  1.0000
  H   H8        1.0  0.4855593286068851  0.1303768428512238  0.9887825044469107  1.0000
  H   H9        1.0  0.16272694058003637  0.02687086443675842  0.1975095804950441  1.0000
  H   H10       1.0  0.8372730599327326  0.9731291363556585  0.8024904198945271  1.0000
  H   H11       1.0  0.03411958132327667  0.8821115235867173  0.15317967116775577  1.0000
  H   H12       1.0  0.9658804190282139  0.11788847634512553  0.8468203292227321  1.0000
  H   H13       1.0  0.37905528610324024  0.06437511816788513  0.3006714639063633  1.0000
  H   H14       1.0  0.6209447142482504  0.9356248817639577  0.6993285364841246  1.0000
  H   H15       1.0  0.5612707483433684  0.0032136391781028735  0.4038619319057016  1.0000
  H   H16       1.0  0.43872925216940056  0.996786361614314  0.5961380684838696  1.0000
  H   H17       1.0  0.2920738983950688  0.6299218266563599  0.2726730586214555  1.0000
  H   H18       1.0  0.7079261016230696  0.37007817297551215  0.7273269411169698  1.0000
  H   H19       1.0  0.12351601255344688  0.7073931790945044  0.17192860806870724  1.0000
  H   H20       1.0  0.8764839874646914  0.2926068205373677  0.8280713916697181  1.0000
  H   H21       1.0  0.6454102791171843  0.9349849686582089  0.511378753137265  1.0000
  H   H22       1.0  0.3545897198172062  0.06501503097259087  0.48862124660307676  1.0000
  H   H23       1.0  0.8313091984399834  0.8503606007350083  0.5978354122251361  1.0000
  H   H24       1.0  0.16869080157815494  0.1496393988968638  0.40216458751328926  1.0000
  H   H25       1.0  0.6876921502471186  0.5110446016974802  0.4067020190358543  1.0000
  H   H26       1.0  0.3123078486872719  0.48895539793331955  0.5932979807044875  1.0000
  H   H27       1.0  0.5025471022478246  0.5809946872109125  0.31085432756734255  1.0000
  H   H28       1.0  0.49745289777031376  0.4190053124209596  0.6891456721710828  1.0000
  H   H29       1.0  0.32919611351904887  0.9021512118577976  0.8199037566471903  1.0000
  H   H30       1.0  0.6708038855766199  0.09784878863357625  0.1800962430922348  1.0000
  H   H31       1.0  0.45080403912916567  0.8136859127719517  0.858949952470056  1.0000
  H   H32       1.0  0.5491959601385771  0.18631408715881884  0.14105004792234832  1.0000
  H   H33       1.0  0.2956860818946673  0.6132838190557791  0.8600491972977258  1.0000
  H   H34       1.0  0.7043139186181017  0.38671618173663774  0.13995080309184532  1.0000
  H   H35       1.0  0.12052114376298019  0.42020174600133664  0.7528367545558406  1.0000
  H   H36       1.0  0.8794788551714103  0.579798253629463  0.24716324518450122  1.0000
  H   H37       1.0  0.9637088663101397  0.6305460962022976  0.5873747202786411  1.0000
  H   H38       1.0  0.036291132624250586  0.369453903428502  0.41262527946170063  1.0000
  H   H39       1.0  0.15317929238759026  0.812807661087068  0.6985019297265057  1.0000
  H   H40       1.0  0.8468207081251786  0.18719233970534882  0.30149807066306533  1.0000
  H   H41       1.0  0.06178150249105443  0.27043491413041343  0.6194380642560712  1.0000
  H   H42       1.0  0.9382184975270839  0.7295650855014588  0.3805619354823542  1.0000
  H   H43       1.0  0.8723060384087868  0.09086283632610073  0.5094414650478685  1.0000
  H   H44       1.0  0.12769396160935154  0.9091371633057713  0.4905585346905569  1.0000
  H   H45       1.0  0.5692073331552417  0.3009508280935551  0.4461606830663839  1.0000
  H   H46       1.0  0.4307926670241749  0.699049172398891  0.5538393166711247  1.0000
  H   H47       1.0  0.7471050469443691  0.4917535860278624  0.5538018819003703  1.0000
  H   H48       1.0  0.2528949530737694  0.5082464136040097  0.44619811783805513  1.0000
  H   H49       1.0  0.8656127038302057  0.3724825951353442  0.02083229536239184  1.0000
  H   H50       1.0  0.1343872954375371  0.6275174047954264  0.9791677050300125  1.0000
  H   H51       1.0  0.021587380940964705  0.42118522024087257  0.11936296922608458  1.0000
  H   H52       1.0  0.9784126190771738  0.5788147793909997  0.8806370305123408  1.0000
  H   H53       1.0  0.8980819404573605  0.6790954626068322  0.013784732975832815  1.0000
  H   H54       1.0  0.10191805881038232  0.3209045373239385  0.9862152674165716  1.0000
  H   H55       1.0  0.7951396423721132  0.523782032369666  0.9582771024161673  1.0000
  H   H56       1.0  0.20486035814065573  0.4762179684227508  0.04172289797340379  1.0000
  H   H57       1.0  0.5204094542670554  0.7118946557526432  0.07125063031856492  1.0000
  H   H58       1.0  0.47959054608443535  0.28810534417919975  0.928749370071923  1.0000
  H   H59       1.0  0.6191784297721602  0.65085626850199  0.994183987477224  1.0000
  H   H60       1.0  0.3808215702459781  0.3491437311298822  0.005816012261201296  1.0000
  H   H61       1.0  0.47735408072724317  0.4603311401220147  0.8740607874875891  1.0000
  H   H62       1.0  0.5226459194521734  0.5396688603704313  0.1259392122499194  1.0000
  H   H63       1.0  0.28574892897563875  0.39982432646341604  0.8733034999791254  1.0000
  H   H64       1.0  0.7142510712037777  0.6001756740290299  0.12669649975838312  1.0000
  C   C1        1.0  0.28869731527856635  0.8565487082196704  0.9311163297744927  1.0000
  C   C2        1.0  0.7113026847395719  0.14345129141220167  0.06888366996393272  1.0000
  C   C3        1.0  0.1377838636208172  0.8626147964857552  0.9300643156076617  1.0000
  C   C4        1.0  0.8622161367306734  0.13738520344608762  0.06993568478282623  1.0000
  C   C5        1.0  0.09637830589865344  0.8853178378287853  0.007052920813083428  1.0000
  C   C6        1.0  0.9036216944528372  0.11468216210305773  0.9929470795774045  1.0000
  C   C7        1.0  0.20498069941849628  0.9037650338432713  0.08633317019375643  1.0000
  C   C8        1.0  0.7950193005996421  0.09623496578860082  0.9136668295446689  1.0000
  C   C9        1.0  0.35597453070145835  0.8989269763262155  0.08751374831524024  1.0000
  C   C10       1.0  0.6440254693166799  0.10107302330565665  0.9124862514231852  1.0000
  C   C11       1.0  0.3971100527541294  0.8750335786609745  0.010135219964048014  1.0000
  C   C12       1.0  0.602889947264009  0.12496642097089747  0.9898647797743774  1.0000
  C   C13       1.0  0.15358150406766602  0.9292049007734176  0.16783382304105854  1.0000
  C   C14       1.0  0.8464184962838247  0.07079509915842559  0.8321661773494293  1.0000
  C   C15       1.0  0.3645140201222745  0.9700959182230812  0.2990865169306553  1.0000
  C   C16       1.0  0.635485978812116  0.029904081407718736  0.7009134828096865  1.0000
  C   C17       1.0  0.4640896350808073  0.9327388469017592  0.35652115290181086  1.0000
  C   C18       1.0  0.5359103638535831  0.06726115272904042  0.6434788468385308  1.0000
  C   C19       1.0  0.4439812822757217  0.8086861815901404  0.3478709525147404  1.0000
  C   C20       1.0  0.5560187177424166  0.19131381804173153  0.6521290472236849  1.0000
  C   C21       1.0  0.3167631861751711  0.7270447762302424  0.2817694295783005  1.0000
  C   C22       1.0  0.6832368138429672  0.2729552234016297  0.7182305701601248  1.0000
  C   C23       1.0  0.22086542319747113  0.768443660839403  0.2254415552927075  1.0000
  C   C24       1.0  0.7791345768206672  0.2315563387924691  0.7745584444457179  1.0000
  C   C25       1.0  0.555406398278894  0.7646994834465897  0.40325055924848585  1.0000
  C   C26       1.0  0.4445936009888488  0.23530051648418088  0.5967494411439186  1.0000
  C   C27       1.0  0.651668534887061  0.8404717481954564  0.4851483620507596  1.0000
  C   C28       1.0  0.3483314651310774  0.15952825143641555  0.5148516376876657  1.0000
  C   C29       1.0  0.7551215365943696  0.7930906851529936  0.5340305011658432  1.0000
  C   C30       1.0  0.2448784634237687  0.2069093144788783  0.4659694985725822  1.0000
  C   C31       1.0  0.6766429291229937  0.6051926640516494  0.4281559414293132  1.0000
  C   C32       1.0  0.3233570708951446  0.39480733558022263  0.5718440583091122  1.0000
  C   C33       1.0  0.5703973103234221  0.6442961762868334  0.37441783088127967  1.0000
  C   C34       1.0  0.42960268894432063  0.35570382364393727  0.6255821695111247  1.0000
  C   C35       1.0  0.3345279501567664  0.8286436433853404  0.8480605470476905  1.0000
  C   C36       1.0  0.6654720500226501  0.17135635710710562  0.15193945268981787  1.0000
  C   C37       1.0  0.22318929165051016  0.6098991626133472  0.7971773172470186  1.0000
  C   C38       1.0  0.7768107088622588  0.3901008381790698  0.20282268314255264  1.0000
  C   C39       1.0  0.12512651655231236  0.5044564403930886  0.7372744993928176  1.0000
  C   C40       1.0  0.8748734827154305  0.49554355953768203  0.2627255009995867  1.0000
  C   C41       1.0  0.02923349970457993  0.5080148529572343  0.6595566365192527  1.0000
  C   C42       1.0  0.9707665003135584  0.4919851466746377  0.3404433632191727  1.0000
  C   C43       1.0  0.0387582230278139  0.6206305480419368  0.6450722859294742  1.0000
  C   C44       1.0  0.9612417769903246  0.3793694515899353  0.3549277138089512  1.0000
  C   C45       1.0  0.14088924563352453  0.7233440653032581  0.7062531798891774  1.0000
  C   C46       1.0  0.859110754545892  0.2766559351891879  0.2937468198483312  1.0000
  C   C47       1.0  0.9204313628983989  0.39741516449510156  0.5956698564806809  1.0000
  C   C48       1.0  0.07956863761437014  0.6025848362973154  0.40433014390889016  1.0000
  C   C49       1.0  0.9540678201181909  0.28230926976908605  0.583166504844211  1.0000
  C   C50       1.0  0.04593217989994767  0.7176907298627861  0.4168334948942145  1.0000
  C   C51       1.0  0.847191489246716  0.18104915851847694  0.5213749466392994  1.0000
  C   C52       1.0  0.1528085111047748  0.818950841413366  0.4786250537511885  1.0000
  C   C53       1.0  0.6798706579495595  0.2976726270381235  0.485670702082469  1.0000
  C   C54       1.0  0.32012934240193125  0.7023273728937195  0.514329298308019  1.0000
  C   C55       1.0  0.7795685565785382  0.40457206489976166  0.5452092526814776  1.0000
  C   C56       1.0  0.22043144235585216  0.595427934731038  0.45479074705886424  1.0000
  C   C57       1.0  0.9782890270551549  0.4353917042889125  0.056811946969210776  1.0000
  C   C58       1.0  0.02171097329633577  0.5646082956429305  0.9431880534212772  1.0000
  C   C59       1.0  0.9087934818364439  0.5840528281659262  0.9960583092714115  1.0000
  C   C60       1.0  0.09120651851504666  0.41594717176591667  0.003941691119076393  1.0000
  C   C61       1.0  0.5376350725730642  0.6278507239792303  0.029560033952785687  1.0000
  C   C62       1.0  0.46236492744507424  0.3721492756526418  0.9704399657856397  1.0000
  C   C63       1.0  0.40198064023995617  0.4467430038940341  0.9150373497524816  1.0000
  C   C64       1.0  0.5980193601115346  0.5532569960378088  0.08496265063800627  1.0000
  N   N1        1.0  0.23040829396341517  0.7169249910042642  0.7807852012818886  1.0000
  N   N2        1.0  0.7695917065493537  0.28307500978815264  0.21921479910768266  1.0000
  N   N3        1.0  0.7115009092302342  0.1869991923983643  0.4734316349275326  1.0000
  N   N4        1.0  0.28849909094918247  0.8130008080940818  0.526568364809976  1.0000
  N   N5        1.0  0.24672571738455656  0.8886351594114683  0.23423010804853156  1.0000
  N   N6        1.0  0.7532742831282124  0.1113648413809485  0.7657698923410395  1.0000
  N   N7        1.0  0.7682943121162393  0.677013144625185  0.5067128267512329  1.0000
  N   N8        1.0  0.2317056880631773  0.322986855867261  0.49328717298627567  1.0000
  O   O1        1.0  0.9595521244742703  0.5588386573380333  0.07621271726266789  1.0000
  O   O2        1.0  0.040447874793472643  0.44116134259273737  0.9237872831297365  1.0000
  O   O3        1.0  0.3914077391564887  0.5632493805733031  0.9682525874965742  1.0000
  O   O4        1.0  0.6085922601112541  0.43675061935746756  0.03174741289583019  1.0000
  F   F1        1.0  0.4132235566337891  0.20029705381511909  0.24379898598779326  1.0000
  F   F2        1.0  0.5867764424618795  0.7997029466762546  0.7562010137516317  1.0000
  F   F3        1.0  0.2470973386081882  0.23892770857200527  0.13221152004950265  1.0000
  F   F4        1.0  0.7529026614099502  0.761072291059867  0.8677884796889227  1.0000
  F   F5        1.0  0.2269835190437503  0.4157800354362342  0.23156346995016036  1.0000
  F   F6        1.0  0.7730164813077404  0.5842199644956086  0.7684365304403276  1.0000
  F   F7        1.0  0.3926112030797431  0.3756215114560814  0.3423509591617891  1.0000
  F   F8        1.0  0.6073887969383952  0.6243784881757904  0.6576490405766361  1.0000
  F   F9        1.0  0.465643169362457  0.38520937512014414  0.21973072177063444  1.0000
  F   F10       1.0  0.5343568306556814  0.614790624511728  0.7802692779677909  1.0000
  F   F11       1.0  0.1734603342123591  0.22924710414020275  0.25425737850307945  1.0000
  F   F12       1.0  0.8265396648833097  0.7707528963511708  0.7457426212363455  1.0000
  F   F13       1.0  0.22150240895514264  0.1059894297371427  0.84181507912271  1.0000
  F   F14       1.0  0.7784975910629958  0.8940105698947294  0.15818492061571543  1.0000
  F   F15       1.0  0.08880490116566148  0.20304023968268137  0.7556928074147052  1.0000
  F   F16       1.0  0.9111950988524768  0.7969597599491907  0.24430719232372006  1.0000
  F   F17       1.0  0.2930528368424317  0.9966194472744832  0.7240430514611298  1.0000
  F   F18       1.0  0.7069471625865892  0.0033805535168613923  0.2759569489303577  1.0000
  F   F19       1.0  0.1587348238499044  0.09248004620496936  0.6374531301435878  1.0000
  F   F20       1.0  0.841265175084486  0.9075199534258305  0.3625468695967539  1.0000
  F   F21       1.0  0.3452253961434299  0.2072644225980938  0.7665670483101291  1.0000
  F   F22       1.0  0.6547746040359868  0.7927355778943521  0.2334329514273794  1.0000
  F   F23       1.0  0.03644419235712222  0.9910643813316704  0.7124521697994871  1.0000
  F   F24       1.0  0.9635558067385467  0.008935619159703251  0.2875478299399379  1.0000
  P   P1        1.0  0.3192597363786564  0.3079328532865845  0.23738474727046888  1.0000
  P   P2        1.0  0.6807402638007601  0.6920671472058615  0.7626152524670397  1.0000
  P   P3        1.0  0.1907930863307876  0.09985366474294659  0.7393346322441132  1.0000
  P   P4        1.0  0.8092069138486291  0.9001463357494995  0.26066536749339536  1.0000
