data_image0
_chemical_formula_structural       H72C80N8O16
_chemical_formula_sum              "H72 C80 N8 O16"
_cell_length_a       12.988319273970896
_cell_length_b       5.4880962387720436
_cell_length_c       23.090798035946115
_cell_angle_alpha    90.0
_cell_angle_beta     90.0
_cell_angle_gamma    90.0

_space_group_name_H-M_alt    "P 1"
_space_group_IT_number       1

loop_
  _space_group_symop_operation_xyz
  'x, y, z'

loop_
  _atom_site_type_symbol
  _atom_site_label
  _atom_site_symmetry_multiplicity
  _atom_site_fract_x
  _atom_site_fract_y
  _atom_site_fract_z
  _atom_site_occupancy
  H   H1        1.0  0.35940310840332823  0.9886529907525861  0.8834198587785701  1.0000
  H   H2        1.0  0.640596892060866  0.011347009471162923  0.3834198586907887  1.0000
  H   H3        1.0  0.1405968918287689  0.9886529907525861  0.3834198586907887  1.0000
  H   H4        1.0  0.8594031078655029  0.011347009471162923  0.8834198587785701  1.0000
  H   H5        1.0  0.48888023123400687  0.0033545494100371753  0.8617630286758807  1.0000
  H   H6        1.0  0.5111197684602649  0.9966454508137119  0.3617630285880992  1.0000
  H   H7        1.0  0.011119768228167721  0.0033545494100371753  0.3617630285880992  1.0000
  H   H8        1.0  0.988880231466104  0.9966454508137119  0.8617630286758807  1.0000
  H   H9        1.0  0.36858958799958486  0.6071382652621885  0.7481274546296636  1.0000
  H   H10       1.0  0.6314104124646094  0.39286173496156057  0.2481274545418821  1.0000
  H   H11       1.0  0.13141041223251226  0.6071382652621885  0.2481274545418821  1.0000
  H   H12       1.0  0.8685895874617595  0.39286173496156057  0.7481274546296636  1.0000
  H   H13       1.0  0.6659964493893595  0.6650199397408191  0.6844045682352907  1.0000
  H   H14       1.0  0.33400355030491224  0.33498005866080455  0.18440456814750936  1.0000
  H   H15       1.0  0.8340035505370094  0.6650199397408191  0.18440456814750936  1.0000
  H   H16       1.0  0.16599644992718485  0.33498005866080455  0.6844045682352907  1.0000
  H   H17       1.0  0.7205942657073747  0.28915484185369705  0.7382481745959082  1.0000
  H   H18       1.0  0.27940573398689705  0.710845158370052  0.23824817450812671  1.0000
  H   H19       1.0  0.7794057342189943  0.28915484185369705  0.23824817450812671  1.0000
  H   H20       1.0  0.22059426547527755  0.710845158370052  0.7382481745959082  1.0000
  H   H21       1.0  0.5931012256095285  0.07120952567104438  0.7990132892452906  1.0000
  H   H22       1.0  0.4068987748546658  0.9287904745527046  0.2990132891575092  1.0000
  H   H23       1.0  0.906898775086763  0.07120952567104438  0.2990132891575092  1.0000
  H   H24       1.0  0.09310122537743136  0.9287904745527046  0.7990132892452906  1.0000
  H   H25       1.0  0.009905341660165927  0.8974932008666965  0.17772746630979963  1.0000
  H   H26       1.0  0.9900946588040284  0.10250679935705242  0.677727466397581  1.0000
  H   H27       1.0  0.4900946585719312  0.8974932008666965  0.677727466397581  1.0000
  H   H28       1.0  0.5099053418922631  0.10250679935705242  0.17772746630979963  1.0000
  H   H29       1.0  0.6913756992404622  0.7809961056657834  0.8407046560183816  1.0000
  H   H30       1.0  0.30862430045380956  0.21900389455796557  0.3407046559306002  1.0000
  H   H31       1.0  0.8086243006859067  0.7809961056657834  0.3407046559306002  1.0000
  H   H32       1.0  0.19137569977828756  0.21900389455796557  0.8407046560183816  1.0000
  H   H33       1.0  0.06447544615554979  0.4304452704948497  0.09264646014701267  1.0000
  H   H34       1.0  0.9355245543086445  0.5695547297288993  0.5926464602347941  1.0000
  H   H35       1.0  0.4355245540765474  0.4304452704948497  0.5926464602347941  1.0000
  H   H36       1.0  0.5644754456177243  0.5695547297288993  0.09264646014701267  1.0000
  H   H37       1.0  0.228629527605702  0.4947619615007965  0.04249779927364872  1.0000
  H   H38       1.0  0.7713704728584924  0.5052380387229526  0.54249779936143  1.0000
  H   H39       1.0  0.2713704726263952  0.4947619615007965  0.54249779936143  1.0000
  H   H40       1.0  0.7286295278377992  0.5052380387229526  0.04249779927364872  1.0000
  H   H41       1.0  0.45064031277162736  0.029390769218014038  0.04939923809581156  1.0000
  H   H42       1.0  0.5493596869226445  0.9706092310057349  0.54939923775052  1.0000
  H   H43       1.0  0.04935968669054728  0.029390769218014038  0.54939923775052  1.0000
  H   H44       1.0  0.9506403130037245  0.9706092310057349  0.04939923809581156  1.0000
  H   H45       1.0  0.3715034091955147  0.5139305193071986  0.9991039904331628  1.0000
  H   H46       1.0  0.6284965904987571  0.4860694809165504  0.4991039903453814  1.0000
  H   H47       1.0  0.12849659103658248  0.5139305193071986  0.4991039903453814  1.0000
  H   H48       1.0  0.8715034094276118  0.4860694809165504  0.9991039904331628  1.0000
  H   H49       1.0  0.5962019955513878  0.05531071373265844  0.00834949271566397  1.0000
  H   H50       1.0  0.403798004142884  0.9446892846689651  0.5083494928034454  1.0000
  H   H51       1.0  0.9037980043749813  0.05531071373265844  0.5083494928034454  1.0000
  H   H52       1.0  0.09620199608921316  0.9446892846689651  0.00834949271566397  1.0000
  H   H53       1.0  0.7670213427818084  0.445777146311012  0.8781060883402773  1.0000
  H   H54       1.0  0.23297865768238588  0.554222853912737  0.37810608868556883  1.0000
  H   H55       1.0  0.7329786571445605  0.445777146311012  0.37810608868556883  1.0000
  H   H56       1.0  0.26702134254971127  0.554222853912737  0.8781060883402773  1.0000
  H   H57       1.0  0.17368691070914113  0.7419176054593098  0.15762111531763143  1.0000
  H   H58       1.0  0.8263130889851306  0.2580823947644391  0.6576211149723399  1.0000
  H   H59       1.0  0.326313089522956  0.7419176054593098  0.6576211149723399  1.0000
  H   H60       1.0  0.6736869109412383  0.2580823947644391  0.15762111531763143  1.0000
  H   H61       1.0  0.3414121239602303  0.8108807036874641  0.10983889582558898  1.0000
  H   H62       1.0  0.658587876503964  0.1891192965362849  0.6098388959133705  1.0000
  H   H63       1.0  0.15858787627186688  0.8108807036874641  0.6098388959133705  1.0000
  H   H64       1.0  0.8414121241923275  0.1891192965362849  0.10983889582558898  1.0000
  H   H65       1.0  0.4689408923143822  0.7089546831399162  0.9319496951339676  1.0000
  H   H66       1.0  0.5310591073798896  0.29104531708383286  0.43194969504618624  1.0000
  H   H67       1.0  0.031059107917715018  0.7089546831399162  0.43194969504618624  1.0000
  H   H68       1.0  0.9689408925464793  0.29104531708383286  0.9319496951339676  1.0000
  H   H69       1.0  0.7629012307895476  0.9637548012794048  0.9787996237642353  1.0000
  H   H70       1.0  0.23709876890472414  0.03624519894434423  0.47879962367645384  1.0000
  H   H71       1.0  0.7370987691368214  0.9637548012794048  0.47879962367645384  1.0000
  H   H72       1.0  0.26290123055745046  0.03624519894434423  0.9787996237642353  1.0000
  C   C1        1.0  0.3864737564666712  0.20740697328855273  0.8133393449963753  1.0000
  C   C2        1.0  0.6135262439975231  0.7925930269351963  0.31333934490859383  1.0000
  C   C3        1.0  0.11352624376542594  0.20740697328855273  0.31333934490859383  1.0000
  C   C4        1.0  0.8864737559288458  0.7925930269351963  0.8133393449963753  1.0000
  C   C5        1.0  0.46986494643923354  0.3236829863605797  0.7785545095502543  1.0000
  C   C6        1.0  0.5301350532550382  0.6763170138631693  0.2785545094624728  1.0000
  C   C7        1.0  0.0301350537928636  0.3236829863605797  0.2785545094624728  1.0000
  C   C8        1.0  0.9698649466713307  0.6763170138631693  0.7785545095502543  1.0000
  C   C9        1.0  0.44630673128100296  0.5327039546693768  0.7466487014940272  1.0000
  C   C10       1.0  0.5536932684132688  0.4672960455543722  0.24664870183931875  1.0000
  C   C11       1.0  0.053693268951094206  0.5327039546693768  0.24664870183931875  1.0000
  C   C12       1.0  0.9463067315131002  0.4672960455543722  0.7466487014940272  1.0000
  C   C13       1.0  0.6119784948564709  0.563441281906507  0.7114231069202157  1.0000
  C   C14       1.0  0.3880215056077234  0.436558718317242  0.21142310683243432  1.0000
  C   C15       1.0  0.888021505069898  0.563441281906507  0.21142310683243432  1.0000
  C   C16       1.0  0.11197849462437376  0.436558718317242  0.7114231069202157  1.0000
  C   C17       1.0  0.6421532096700666  0.3562093164819226  0.7416551265720821  1.0000
  C   C18       1.0  0.35784679002420516  0.6437906837418265  0.24165512648430065  1.0000
  C   C19       1.0  0.8578467902563023  0.3562093164819226  0.24165512648430065  1.0000
  C   C20       1.0  0.14215320943796944  0.6437906837418265  0.7416551265720821  1.0000
  C   C21       1.0  0.5706405581554546  0.23498746448523547  0.7757799835290977  1.0000
  C   C22       1.0  0.4293594415388173  0.7650125357385136  0.2757799834413164  1.0000
  C   C23       1.0  0.9293594417709143  0.23498746448523547  0.2757799834413164  1.0000
  C   C24       1.0  0.07064055792335737  0.7650125357385136  0.7757799835290977  1.0000
  C   C25       1.0  0.10846388976772521  0.08491770547090027  0.12972943530737788  1.0000
  C   C26       1.0  0.8915361106964691  0.9150822929307233  0.6297294353951594  1.0000
  C   C27       1.0  0.391536110464372  0.08491770547090027  0.6297294353951594  1.0000
  C   C28       1.0  0.6084638899998224  0.9150822929307233  0.12972943530737788  1.0000
  C   C29       1.0  0.12588820735849612  0.29595862378015153  0.09640181627913982  1.0000
  C   C30       1.0  0.8741117923357757  0.7040413764435974  0.5964018163669212  1.0000
  C   C31       1.0  0.3741117928736011  0.29595862378015153  0.5964018163669212  1.0000
  C   C32       1.0  0.6258882075905934  0.7040413764435974  0.09640181627913982  1.0000
  C   C33       1.0  0.21895383074692137  0.32987276848575625  0.06814866500284314  1.0000
  C   C34       1.0  0.781046169717273  0.6701272317379928  0.5681486650906246  1.0000
  C   C35       1.0  0.2810461694851758  0.32987276848575625  0.5681486650906246  1.0000
  C   C36       1.0  0.7189538302090959  0.6701272317379928  0.06814866500284314  1.0000
  C   C37       1.0  0.29920960118282264  0.15656224537932878  0.0720657621884491  1.0000
  C   C38       1.0  0.7007903985114492  0.8434377548444202  0.5720657618431575  1.0000
  C   C39       1.0  0.20079039904927454  0.15656224537932878  0.5720657618431575  1.0000
  C   C40       1.0  0.7992096014149198  0.8434377548444202  0.0720657621884491  1.0000
  C   C41       1.0  0.39749361030463753  0.1807476521625193  0.042396592723907035  1.0000
  C   C42       1.0  0.6025063901595568  0.8192523480612297  0.5423965923786155  1.0000
  C   C43       1.0  0.10250638992745964  0.1807476521625193  0.5423965923786155  1.0000
  C   C44       1.0  0.8974936097668121  0.8192523480612297  0.042396592723907035  1.0000
  C   C45       1.0  0.42537255078661845  0.36409896857914753  0.0064928609122390174  1.0000
  C   C46       1.0  0.5746274496775758  0.6359010316446015  0.5064928605669475  1.0000
  C   C47       1.0  0.07462744944547872  0.36409896857914753  0.5064928605669475  1.0000
  C   C48       1.0  0.9253725502487931  0.6359010316446015  0.0064928609122390174  1.0000
  C   C49       1.0  0.5208070449543184  0.3803872306851344  0.9737144898586332  1.0000
  C   C50       1.0  0.4791929547399534  0.6196127695386147  0.4737144897708518  1.0000
  C   C51       1.0  0.9791929549720506  0.3803872306851344  0.4737144897708518  1.0000
  C   C52       1.0  0.020807044722221196  0.6196127695386147  0.9737144898586332  1.0000
  C   C53       1.0  0.6012226282155911  0.2086270630443946  0.9784841548060529  1.0000
  C   C54       1.0  0.3987773714786807  0.7913729371793544  0.4784841547182715  1.0000
  C   C55       1.0  0.8987773717107778  0.2086270630443946  0.4784841547182715  1.0000
  C   C56       1.0  0.10122262875341649  0.7913729371793544  0.9784841548060529  1.0000
  C   C57       1.0  0.6886197475853673  0.23740417319859572  0.9442250512978712  1.0000
  C   C58       1.0  0.3113802521089044  0.7625958270251533  0.4442250516431626  1.0000
  C   C59       1.0  0.8113802523410016  0.23740417319859572  0.4442250516431626  1.0000
  C   C60       1.0  0.1886197473532702  0.7625958270251533  0.9442250512978712  1.0000
  C   C61       1.0  0.6984468312370443  0.4294439761004152  0.9048528291431961  1.0000
  C   C62       1.0  0.30155316845722746  0.5705560223012084  0.4048528290554148  1.0000
  C   C63       1.0  0.8015531686893247  0.4294439761004152  0.4048528290554148  1.0000
  C   C64       1.0  0.19844683100494714  0.5705560223012084  0.9048528291431961  1.0000
  C   C65       1.0  0.1873229075047337  0.9098031362360363  0.13373610020722138  1.0000
  C   C66       1.0  0.8126770921895381  0.09019686398771276  0.6337360998619298  1.0000
  C   C67       1.0  0.3126770927273635  0.9098031362360363  0.6337360998619298  1.0000
  C   C68       1.0  0.6873229077368308  0.09019686398771276  0.13373610020722138  1.0000
  C   C69       1.0  0.280478000513938  0.946311717952313  0.10565494125417907  1.0000
  C   C70       1.0  0.7195219991803338  0.05368828227143605  0.6056549413419605  1.0000
  C   C71       1.0  0.21952199971815917  0.946311717952313  0.6056549413419605  1.0000
  C   C72       1.0  0.7804780007460351  0.05368828227143605  0.10565494125417907  1.0000
  C   C73       1.0  0.6183737056799731  0.5988858826454191  0.9001716942672282  1.0000
  C   C74       1.0  0.3816262947842213  0.40111411757832993  0.4001716941794468  1.0000
  C   C75       1.0  0.8816262942463959  0.5988858826454191  0.4001716941794468  1.0000
  C   C76       1.0  0.11837370544787587  0.40111411757832993  0.9001716942672282  1.0000
  C   C77       1.0  0.5307635356497048  0.5757471466475217  0.9348792824914377  1.0000
  C   C78       1.0  0.4692364640445669  0.42425285357622733  0.4348792824036562  1.0000
  C   C79       1.0  0.9692364642766641  0.5757471466475217  0.4348792824036562  1.0000
  C   C80       1.0  0.03076353541760767  0.42425285357622733  0.9348792824914377  1.0000
  N   N1        1.0  0.4137743349726685  0.04824267623616598  0.8544668689789429  1.0000
  N   N2        1.0  0.5862256647216032  0.9517573221654576  0.35446686889116147  1.0000
  N   N3        1.0  0.08622566525942867  0.04824267623616598  0.35446686889116147  1.0000
  N   N4        1.0  0.9137743352047656  0.9517573221654576  0.8544668689789429  1.0000
  N   N5        1.0  0.5153440971699814  0.6505899504413385  0.7139414880480344  1.0000
  N   N6        1.0  0.4846559025242903  0.3494100497824106  0.21394148796025303  1.0000
  N   N7        1.0  0.9846559027563876  0.6505899504413385  0.21394148796025303  1.0000
  N   N8        1.0  0.015344096937884265  0.3494100497824106  0.7139414880480344  1.0000
  O   O1        1.0  0.2942389480414742  0.26443640323711165  0.8033232372966777  1.0000
  O   O2        1.0  0.7057610516527977  0.7355635951645119  0.3033232372088963  1.0000
  O   O3        1.0  0.20576105142070045  0.26443640323711165  0.3033232372088963  1.0000
  O   O4        1.0  0.7942389482735713  0.7355635951645119  0.8033232372966777  1.0000
  O   O5        1.0  0.01642158815940406  0.05983405642199044  0.15553819380382636  1.0000
  O   O6        1.0  0.9835784123047902  0.9401659438017586  0.6555381934585348  1.0000
  O   O7        1.0  0.4835784120726931  0.05983405642199044  0.6555381934585348  1.0000
  O   O8        1.0  0.5164215883915012  0.9401659438017586  0.15553819380382636  1.0000
  O   O9        1.0  0.7711827980755906  0.08039131800988918  0.9469973885683433  1.0000
  O   O10       1.0  0.2288172016186811  0.9196086822138599  0.44699738848056186  1.0000
  O   O11       1.0  0.7288172018507783  0.08039131800988918  0.44699738848056186  1.0000
  O   O12       1.0  0.2711827986134161  0.9196086822138599  0.9469973885683433  1.0000
  O   O13       1.0  0.6233483377811014  0.7877189724659939  0.8620609806994223  1.0000
  O   O14       1.0  0.3766516619131704  0.21228102775775518  0.3620609806116408  1.0000
  O   O15       1.0  0.8766516621452675  0.7877189724659939  0.3620609806116408  1.0000
  O   O16       1.0  0.12334833754900426  0.21228102775775518  0.8620609806994223  1.0000
