data_image0
_chemical_formula_structural       H44C40N2O10S2
_chemical_formula_sum              "H44 C40 N2 O10 S2"
_cell_length_a       5.658434387290972
_cell_length_b       7.754289747867695
_cell_length_c       21.218455079694237
_cell_angle_alpha    85.83914519633154
_cell_angle_beta     81.84904576576022
_cell_angle_gamma    85.08940269856551

_space_group_name_H-M_alt    "P 1"
_space_group_IT_number       1

loop_
  _space_group_symop_operation_xyz
  'x, y, z'

loop_
  _atom_site_type_symbol
  _atom_site_label
  _atom_site_symmetry_multiplicity
  _atom_site_fract_x
  _atom_site_fract_y
  _atom_site_fract_z
  _atom_site_occupancy
  H   H1        1.0  0.9262540934101512  0.3459978992506957  0.6263285722019943  1.0000
  H   H2        1.0  0.07374590702386434  0.6540021017668419  0.37367142776020523  1.0000
  H   H3        1.0  0.003537307001730557  0.4341219102970858  0.7316737886165837  1.0000
  H   H4        1.0  0.996462693432285  0.5658780907204517  0.2683262113456159  1.0000
  H   H5        1.0  0.3537357204967816  0.21501582196005806  0.8212609887607045  1.0000
  H   H6        1.0  0.6462642800840004  0.7849841777608413  0.17873901122349506  1.0000
  H   H7        1.0  0.27438396037769675  0.13102883812438276  0.7159014224130965  1.0000
  H   H8        1.0  0.7256160402030853  0.8689711615965168  0.2840985775711031  1.0000
  H   H9        1.0  0.6182071570307819  0.3561916003024401  0.015139710280440456  1.0000
  H   H10       1.0  0.38179284355000015  0.6438083994184594  0.984860289703759  1.0000
  H   H11       1.0  0.7842888907064487  0.44122000351511254  0.10898806577906246  1.0000
  H   H12       1.0  0.21571110987433328  0.558779996205787  0.891011934205137  1.0000
  H   H13       1.0  0.609045337757551  0.7853610712121369  0.04574779418638518  1.0000
  H   H14       1.0  0.3909546608919657  0.2146389297980417  0.9542522058422942  1.0000
  H   H15       1.0  0.8752957734050103  0.898377519201289  0.03529245426581923  1.0000
  H   H16       1.0  0.12470422717577173  0.10162248051961041  0.9647075457183804  1.0000
  H   H17       1.0  0.23971557635037377  0.1867762017142321  0.06973808068866831  1.0000
  H   H18       1.0  0.7602844242304082  0.8132237980066673  0.9302619192955314  1.0000
  H   H19       1.0  0.22858117383442178  0.9571006024240728  0.06674326436381288  1.0000
  H   H20       1.0  0.7714188267463602  0.04289939729682667  0.9332567356203867  1.0000
  H   H21       1.0  0.7539633373393739  0.5011120766222359  0.53584464569907  1.0000
  H   H22       1.0  0.24603666324140808  0.49888792309866364  0.4641553542851296  1.0000
  H   H23       1.0  0.7472323122077071  0.6820188871097619  0.4990075643407154  1.0000
  H   H24       1.0  0.25276768837307495  0.3179811126111376  0.5009924356434842  1.0000
  H   H25       1.0  0.8344094677496255  0.17807886785095933  0.47201633178699737  1.0000
  H   H26       1.0  0.1655905328311565  0.8219211318699401  0.5279836681972022  1.0000
  H   H27       1.0  0.07036865057768367  0.11750719572992764  0.41780959772286114  1.0000
  H   H28       1.0  0.9296313500030983  0.8824928039909719  0.5821904022613384  1.0000
  H   H29       1.0  0.8067312089734938  0.02951419243887896  0.4194487423192855  1.0000
  H   H30       1.0  0.19326879160728822  0.9704858072820205  0.5805512576649141  1.0000
  H   H31       1.0  0.180444079110706  0.11580841419173955  0.3083702856125168  1.0000
  H   H32       1.0  0.8195559214700758  0.8841915855291599  0.6916297143716827  1.0000
  H   H33       1.0  0.1972580313320702  0.036702869987592764  0.1972189371999109  1.0000
  H   H34       1.0  0.8027419692487118  0.9632971297333067  0.8027810627842886  1.0000
  H   H35       1.0  0.8454573484641547  0.11314181425706193  0.13824373783802324  1.0000
  H   H36       1.0  0.15454265211662735  0.8868581854638374  0.8617562621461763  1.0000
  H   H37       1.0  0.48399490468700823  0.27544424848281535  0.19132162996530722  1.0000
  H   H38       1.0  0.5160050958937737  0.7245557512380841  0.8086783700188924  1.0000
  H   H39       1.0  0.46564961674844096  0.35303018138383374  0.3034686060109265  1.0000
  H   H40       1.0  0.5343503819010755  0.646969819626345  0.696531394017753  1.0000
  H   H41       1.0  0.9110559162323241  0.39580351252580104  0.38658276970741134  1.0000
  H   H42       1.0  0.0889440842016916  0.6041964884917366  0.6134172302547882  1.0000
  H   H43       1.0  0.6141146415719254  0.3269309220415964  0.4006310632550673  1.0000
  H   H44       1.0  0.38588535722435746  0.6730690776719443  0.5993689367956121  1.0000
  C   C1        1.0  0.5943223230313489  0.23665277683988098  0.6649654518250877  1.0000
  C   C2        1.0  0.40567767561816764  0.7633472241702978  0.3350345482035917  1.0000
  C   C3        1.0  0.7998037835655435  0.3212758053374279  0.6689428058141019  1.0000
  C   C4        1.0  0.2001962170152385  0.6787241943834716  0.33105719417009777  1.0000
  C   C5        1.0  0.8442154073749951  0.3682870303332426  0.7278261571163763  1.0000
  C   C6        1.0  0.15578459320578686  0.6317129693876569  0.2721738428678232  1.0000
  C   C7        1.0  0.6847472288071362  0.3295976824395577  0.7834504959940304  1.0000
  C   C8        1.0  0.31525277177364575  0.6704023172813417  0.21654950399016928  1.0000
  C   C9        1.0  0.47728251259526544  0.2453929130586007  0.7784600398157405  1.0000
  C   C10       1.0  0.5227174862010175  0.7546070866549399  0.22153996023493894  1.0000
  C   C11       1.0  0.4327710159695723  0.19847900349616063  0.7194609642860423  1.0000
  C   C12       1.0  0.5672289828267107  0.80152099621738  0.280539035764637  1.0000
  C   C13       1.0  0.7426125402430579  0.3720578513001436  0.8428092938559893  1.0000
  C   C14       1.0  0.2573874601909577  0.6279421497173938  0.1571907061062103  1.0000
  C   C15       1.0  0.8114300223389533  0.40832839616020983  0.8919215575795374  1.0000
  C   C16       1.0  0.18856997645732948  0.5916716035533308  0.10807844247114218  1.0000
  C   C17       1.0  0.9037726350245391  0.45353394299957267  0.9463945867305054  1.0000
  C   C18       1.0  0.09622736555624285  0.5464660567213269  0.05360541325369414  1.0000
  C   C19       1.0  0.7838604173729599  0.42046428082135795  0.008554666717079952  1.0000
  C   C20       1.0  0.2161395832078222  0.5795357188995416  0.9914453332671196  1.0000
  C   C21       1.0  0.8777553568526835  0.4666350663441911  0.06119124620736259  1.0000
  C   C22       1.0  0.12224464194359942  0.5333649333693494  0.9388087538433169  1.0000
  C   C23       1.0  0.6891455793707607  0.9058138275062706  0.025614316216914366  1.0000
  C   C24       1.0  0.3108544212100213  0.09418617221462885  0.9743856837672853  1.0000
  C   C25       1.0  0.32245426652409426  0.07153955915941365  0.04567866317545517  1.0000
  C   C26       1.0  0.6775457340566877  0.9284604405614858  0.9543213368087445  1.0000
  C   C27       1.0  0.8200950628984447  0.23965679211399582  0.3137932595430791  1.0000
  C   C28       1.0  0.17990493575107191  0.7603432088961829  0.6862067404856004  1.0000
  C   C29       1.0  0.02647572931479326  0.15126153865035502  0.2831898987835686  1.0000
  C   C30       1.0  0.9735242712659886  0.8487384610705445  0.716810101200631  1.0000
  C   C31       1.0  0.03653946926067714  0.1067762204956796  0.22014160401898694  1.0000
  C   C32       1.0  0.963460531320105  0.8932237792252199  0.7798583959652128  1.0000
  C   C33       1.0  0.8415506702772022  0.15042808966847532  0.18695319066972163  1.0000
  C   C34       1.0  0.15844933030357977  0.8495719100524243  0.8130468093144779  1.0000
  C   C35       1.0  0.6372586423884425  0.2410437237958815  0.2168184348351473  1.0000
  C   C36       1.0  0.36274135804557295  0.758956277221656  0.7831815651270523  1.0000
  C   C37       1.0  0.6266380679597334  0.28482891556997497  0.27984890731088535  1.0000
  C   C38       1.0  0.3733619326210486  0.7151710841509246  0.7201510926733142  1.0000
  C   C39       1.0  0.8008127917629361  0.28887752204546846  0.38174684076870596  1.0000
  C   C40       1.0  0.19918720881784605  0.711122477675431  0.6182531592154936  1.0000
  N   N1        1.0  0.885016346873143  0.14295533440918953  0.4250088471579284  1.0000
  N   N2        1.0  0.11498365192313985  0.8570446653043511  0.574991152892751  1.0000
  O   O1        1.0  0.7085288667003243  0.2645708378131591  0.5422622597965044  1.0000
  O   O2        1.0  0.29147113388045776  0.7354291619077404  0.4577377401876952  1.0000
  O   O3        1.0  0.6240895492578007  0.976952198011707  0.5917907062354864  1.0000
  O   O4        1.0  0.37591045117621485  0.02304780300583059  0.4082092937267133  1.0000
  O   O5        1.0  0.29543544142080724  0.19729516936188551  0.583624528007661  1.0000
  O   O6        1.0  0.7045645573754756  0.8027048303516551  0.41637547204301834  1.0000
  O   O7        1.0  0.5662880264242092  0.050343060303967097  0.05811390826588706  1.0000
  O   O8        1.0  0.4337119741565728  0.9496569394169324  0.9418860917183125  1.0000
  O   O9        1.0  0.7673744391620747  0.6245806521590216  0.5407913306933654  1.0000
  O   O10       1.0  0.23262556141870733  0.3754193475618779  0.45920866929083426  1.0000
  S   S1        1.0  0.5519234227742927  0.16383813266094516  0.590121184463762  1.0000
  S   S2        1.0  0.44807657765972286  0.8361618683565923  0.40987881549843774  1.0000
