data_image0
_chemical_formula_structural       H64B20C14N4O44
_chemical_formula_sum              "H64 B20 C14 N4 O44"
_cell_length_a       10.254314271168408
_cell_length_b       10.394124046191028
_cell_length_c       13.560154164865697
_cell_angle_alpha    67.74795786901468
_cell_angle_beta     68.75664275905193
_cell_angle_gamma    78.10392214178037

_space_group_name_H-M_alt    "P 1"
_space_group_IT_number       1

loop_
  _space_group_symop_operation_xyz
  'x, y, z'

loop_
  _atom_site_type_symbol
  _atom_site_label
  _atom_site_symmetry_multiplicity
  _atom_site_fract_x
  _atom_site_fract_y
  _atom_site_fract_z
  _atom_site_occupancy
  H   H1        1.0  0.9859431205966991  0.4623296538505709  0.8420092589096513  1.0000
  H   H2        1.0  0.01405687938990299  0.5376703457381372  0.15799074067476415  1.0000
  H   H3        1.0  0.8761302865709892  0.09589709229302613  0.9388910446491293  1.0000
  H   H4        1.0  0.12386971321990112  0.9041029082783848  0.06110895493635143  1.0000
  H   H5        1.0  0.3769587256963267  0.9449341583696251  0.0658029093961738  1.0000
  H   H6        1.0  0.6230412740945638  0.05506584220178588  0.934197090189307  1.0000
  H   H7        1.0  0.6441278568982255  0.35674187685677317  0.47729526536609945  1.0000
  H   H8        1.0  0.3558721430883764  0.643258122731935  0.5227047342183161  1.0000
  H   H9        1.0  0.5922950164632128  0.6848519226838301  0.42997098847366355  1.0000
  H   H10       1.0  0.4077049839786591  0.31514807752928764  0.5700290119491435  1.0000
  H   H11       1.0  0.19199488734481354  0.45862137357768695  0.2936455881767357  1.0000
  H   H12       1.0  0.8080051123147545  0.5413786256621629  0.7063544122468842  1.0000
  H   H13       1.0  0.8479164044940206  0.09342374354684242  0.14468277384842793  1.0000
  H   H14       1.0  0.1520835951655473  0.9065762556930071  0.8553172265751919  1.0000
  H   H15       1.0  0.9975008415442149  0.164963291198564  0.09575958947156826  1.0000
  H   H16       1.0  0.0024991582466755754  0.835036709372847  0.9042404101139124  1.0000
  H   H17       1.0  0.8437631960608097  0.25930768852923813  0.13555669240117824  1.0000
  H   H18       1.0  0.1562368039257921  0.74069231105947  0.8644433071832373  1.0000
  H   H19       1.0  0.9450611983491781  0.20589274203780222  0.2770349978808901  1.0000
  H   H20       1.0  0.05493880144171233  0.7941072585336089  0.7229650017045904  1.0000
  H   H21       1.0  0.9965737572347929  0.0337508624579269  0.2747722338612272  1.0000
  H   H22       1.0  0.0034262422290638316  0.9662491377646258  0.7252277665634577  1.0000
  H   H23       1.0  0.7399373357658909  0.9852269567122557  0.34637491996308395  1.0000
  H   H24       1.0  0.2600626636979656  0.014773043510297047  0.6536250804616011  1.0000
  H   H25       1.0  0.6925433365840798  0.15384829119836163  0.357288910981936  1.0000
  H   H26       1.0  0.3074566630754882  0.8461517080414884  0.6427110894416836  1.0000
  H   H27       1.0  0.8732465158362599  0.9240137966261746  0.48286870615334654  1.0000
  H   H28       1.0  0.1267534839546306  0.0759862039452366  0.5171312934321342  1.0000
  H   H29       1.0  0.8222039744762863  0.09131311818536736  0.49670604070181523  1.0000
  H   H30       1.0  0.17779602629261954  0.9086868823766088  0.5032939588817876  1.0000
  H   H31       1.0  0.6174441274006124  0.8791839303197193  0.5483697674677356  1.0000
  H   H32       1.0  0.3825558723902778  0.12081607025169182  0.4516302321177453  1.0000
  H   H33       1.0  0.5701833650560807  0.043378757295541776  0.5679640989022601  1.0000
  H   H34       1.0  0.4298166347348097  0.9566212432758694  0.4320359006832207  1.0000
  H   H35       1.0  0.7004621088672541  0.9647061701814568  0.7095671727495118  1.0000
  H   H36       1.0  0.2995378905966026  0.03529383004109602  0.2904328276751731  1.0000
  H   H37       1.0  0.7455504962956913  0.8008633770272078  0.6894981324820498  1.0000
  H   H38       1.0  0.2544495033638768  0.19913662221264203  0.31050186794156986  1.0000
  H   H39       1.0  0.4457911595979357  0.9263167907818025  0.7773004559195261  1.0000
  H   H40       1.0  0.5542088398659208  0.07368320944075027  0.22269954450515878  1.0000
  H   H41       1.0  0.4864265366546422  0.7678676783695141  0.7500268800412554  1.0000
  H   H42       1.0  0.513573464309975  0.23213232120975894  0.24997311954128243  1.0000
  H   H43       1.0  0.6143460867279867  0.6695151063911562  0.8912498384190307  1.0000
  H   H44       1.0  0.3856539127358697  0.3304848938313966  0.10875016200565424  1.0000
  H   H45       1.0  0.575581613119595  0.8284981302679761  0.9204808399476933  1.0000
  H   H46       1.0  0.4244183868670069  0.171501869320732  0.07951915963672232  1.0000
  H   H47       1.0  0.32658838270887536  0.795925406355272  0.9861128530173272  1.0000
  H   H48       1.0  0.6734116177329965  0.204074593857846  0.013887147405479954  1.0000
  H   H49       1.0  0.4193504103896273  0.6509794155524322  0.0518504261296312  1.0000
  H   H50       1.0  0.5806495894012632  0.34902058501897887  0.9481495734558495  1.0000
  H   H51       1.0  0.35946302494668847  0.6512663659275283  0.9517927022517128  1.0000
  H   H52       1.0  0.640536974844202  0.3487336346438827  0.04820729733376803  1.0000
  H   H53       1.0  0.07884527541030258  0.16539197060598246  0.8080757921734193  1.0000
  H   H54       1.0  0.9211547253586034  0.8346080299559936  0.19192420741018365  1.0000
  H   H55       1.0  0.7629746307481658  0.1917410274797913  0.7500684515551403  1.0000
  H   H56       1.0  0.23702536969370608  0.8082589727333263  0.24993154886766686  1.0000
  H   H57       1.0  0.16784498665686812  0.28980266843291497  0.6138192122714505  1.0000
  H   H58       1.0  0.8321550143077492  0.710197331146358  0.38618078731108724  1.0000
  H   H59       1.0  0.8153741232146182  0.31407199231495764  0.5598193855789192  1.0000
  H   H60       1.0  0.18462587755428767  0.6859280082470186  0.44018061400468367  1.0000
  H   H61       1.0  0.8106200600238702  0.4545024170821372  0.28414503770649124  1.0000
  H   H62       1.0  0.1893799407450357  0.545497583479839  0.7158549618771116  1.0000
  H   H63       1.0  0.0599858780506742  0.3588982072708599  0.47770154553282723  1.0000
  H   H64       1.0  0.9400141217402161  0.6411017933005512  0.5222984540526534  1.0000
  B   B1        1.0  0.6556464319120829  0.5138326414396857  0.15401259732665926  1.0000
  B   B2        1.0  0.34435356787880755  0.4861673591317254  0.8459874022588214  1.0000
  B   B3        1.0  0.8013145077697111  0.7100480063805722  0.019852126896878448  1.0000
  B   B4        1.0  0.1986854916941453  0.2899519938419806  0.9801478735278065  1.0000
  B   B5        1.0  0.7599867680090292  0.9306236022932906  0.061543377073219864  1.0000
  B   B6        1.0  0.24001323243284275  0.06937639791982712  0.9384566233495872  1.0000
  B   B7        1.0  0.8504847087339066  0.4962180136343086  0.9796598733360723  1.0000
  B   B8        1.0  0.1495152907299498  0.5037819865882441  0.020340127088612756  1.0000
  B   B9        1.0  0.542725074908302  0.41142074342605994  0.3618335440876258  1.0000
  B   B10       1.0  0.4572749248825884  0.5885792571453512  0.6381664554978549  1.0000
  B   B11       1.0  0.3980123990358162  0.48094367437766056  0.2430955883354894  1.0000
  B   B12       1.0  0.6019876019288013  0.5190563252016125  0.7569044112470483  1.0000
  B   B13       1.0  0.5064586417417419  0.8774269139286989  0.1540024962933328  1.0000
  B   B14       1.0  0.4935413580491485  0.1225730866427121  0.845997503292148  1.0000
  B   B15       1.0  0.6569782535994009  0.7950486080618692  0.2665815873808305  1.0000
  B   B16       1.0  0.3430217460601671  0.20495139117798053  0.7334184130427892  1.0000
  B   B17       1.0  0.9672977983258445  0.23237366424560632  0.6989309612130338  1.0000
  B   B18       1.0  0.032702201138012046  0.7676263359769464  0.30106903921165096  1.0000
  B   B19       1.0  0.9191176528745525  0.40352573744048775  0.392943190141353  1.0000
  B   B20       1.0  0.08088234756731952  0.5964742627726299  0.6070568102814542  1.0000
  C   C1        1.0  0.911039640703294  0.1166589012804759  0.270734397521632  1.0000
  C   C2        1.0  0.08896036026132317  0.8833410982987974  0.7292656020609056  1.0000
  C   C3        1.0  0.774868380775989  0.06712671962934272  0.3619672997663485  1.0000
  C   C4        1.0  0.2251316186878674  0.9328732805932102  0.6380327006583365  1.0000
  C   C5        1.0  0.7893973766635854  0.009595836780452005  0.4794948724730161  1.0000
  C   C6        1.0  0.2106026231273049  0.9904041637909592  0.5205051271124647  1.0000
  C   C7        1.0  0.6524770264966046  0.9562150407394785  0.569439584103869  1.0000
  C   C8        1.0  0.34752297296725193  0.04378495948307429  0.43056041632081593  1.0000
  C   C9        1.0  0.6647645216908376  0.8892035069581712  0.6875297265949111  1.0000
  C   C10       1.0  0.335235478100053  0.11079649361323979  0.3124702729905696  1.0000
  C   C11       1.0  0.525644676033777  0.8378108063759275  0.7751059595767933  1.0000
  C   C12       1.0  0.47435532343007947  0.16218919384662525  0.22489404084789175  1.0000
  C   C13       1.0  0.5391492899960295  0.7613336694802914  0.8915084164528647  1.0000
  C   C14       1.0  0.46085070999057265  0.23866633010841679  0.10849158313155062  1.0000
  N   N1        1.0  0.8974192748181424  0.16131479488646094  0.1563983201519006  1.0000
  N   N2        1.0  0.10258072516845963  0.8386852047022472  0.8436016794325149  1.0000
  N   N3        1.0  0.4024733276031612  0.7125081061323767  0.9760543575298383  1.0000
  N   N4        1.0  0.5975266723834407  0.28749189345633147  0.023945642054577224  1.0000
  O   O1        1.0  0.7520675152556696  0.4334118270242286  0.0815606058142569  1.0000
  O   O2        1.0  0.24793248473093238  0.5665881725644795  0.9184393937701586  1.0000
  O   O3        1.0  0.9261156252282622  0.4125990154744442  0.9189409861407967  1.0000
  O   O4        1.0  0.0738843745626283  0.587400985096967  0.08105901344468394  1.0000
  O   O5        1.0  0.8704752494406651  0.6371959750098989  0.9446329312605618  1.0000
  O   O6        1.0  0.12952475002319133  0.3628040252126539  0.055367069164123074  1.0000
  O   O7        1.0  0.8384077994739302  0.8421520277930926  0.991577251909964  1.0000
  O   O8        1.0  0.16159220129497587  0.15784797276888346  0.008422747673638929  1.0000
  O   O9        1.0  0.6104630941803593  0.9491039998215007  0.06414465960239113  1.0000
  O   O10       1.0  0.3895369064572242  0.05089599940891382  0.9358553408193508  1.0000
  O   O11       1.0  0.8124128387008444  0.06691322975853167  0.01728919143431604  1.0000
  O   O12       1.0  0.18758716076301243  0.933086770464021  0.9827108089903689  1.0000
  O   O13       1.0  0.3771829308616599  0.8816451720563822  0.14298035291790093  1.0000
  O   O14       1.0  0.6228170699072461  0.11835482850559396  0.857019646665702  1.0000
  O   O15       1.0  0.5234243148077206  0.8072687541466879  0.25848007164387543  1.0000
  O   O16       1.0  0.4765756846561361  0.19273124607586503  0.7415199287808094  1.0000
  O   O17       1.0  0.6994113275834616  0.6532292347162311  0.11683831828593312  1.0000
  O   O18       1.0  0.30058867207610634  0.3467707645236187  0.8831616821376866  1.0000
  O   O19       1.0  0.5500069450490422  0.35975925148462407  0.4690413335364085  1.0000
  O   O20       1.0  0.44999305571986364  0.6402407490773521  0.5309586660471943  1.0000
  O   O21       1.0  0.4107888207990434  0.4284088706235489  0.35057017585349554  1.0000
  O   O22       1.0  0.5892111799698625  0.5715911299384273  0.6494298237301074  1.0000
  O   O23       1.0  0.76594963155243  0.8628194923544115  0.17886091353764866  1.0000
  O   O24       1.0  0.23405036791142664  0.1371805078681412  0.8211390868870362  1.0000
  O   O25       1.0  0.6801067325711531  0.7210617802451743  0.36724398373502637  1.0000
  O   O26       1.0  0.3198932681977529  0.27893822031680177  0.6327560158485767  1.0000
  O   O27       1.0  0.6612142172852205  0.43970632257463277  0.27036121795865364  1.0000
  O   O28       1.0  0.33878578348368543  0.5602936779873433  0.7296387816249492  1.0000
  O   O29       1.0  0.273453031494485  0.4923680998408322  0.22530887506705485  1.0000
  O   O30       1.0  0.7265469684921172  0.5076318997478758  0.7746911245173606  1.0000
  O   O31       1.0  0.5128316634830753  0.5212797807572925  0.149468238531287  1.0000
  O   O32       1.0  0.4871683361764927  0.47872021848255736  0.8505317618923327  1.0000
  O   O33       1.0  0.9827307395333726  0.1666655914099082  0.8034323078919182  1.0000
  O   O34       1.0  0.0172692599304838  0.8333344088126445  0.19656769253276676  1.0000
  O   O35       1.0  0.8416084362813235  0.23548507869499233  0.682388222208239  1.0000
  O   O36       1.0  0.15839156337824445  0.7645149205448574  0.3176117782153807  1.0000
  O   O37       1.0  0.07449880317077018  0.292813940655651  0.6042130905351953  1.0000
  O   O38       1.0  0.9255011962930862  0.7071860595669017  0.39578690988948956  1.0000
  O   O39       1.0  0.8021342809342101  0.3566966337118756  0.4838144318145663  1.0000
  O   O40       1.0  0.19786571885668028  0.6433033668595356  0.5161855677709144  1.0000
  O   O41       1.0  0.9060717741147563  0.457954835231355  0.28703136229292564  1.0000
  O   O42       1.0  0.09392822534910032  0.5420451649911979  0.7129686381317593  1.0000
  O   O43       1.0  0.050702721477040684  0.3955619841825195  0.4005243888448065  1.0000
  O   O44       1.0  0.9492972779868158  0.6044380160400333  0.5994756115798784  1.0000
