data_image0
_chemical_formula_structural       H24C38O4F8S2I4
_chemical_formula_sum              "H24 C38 O4 F8 S2 I4"
_cell_length_a       8.020286326579763
_cell_length_b       8.216135516181144
_cell_length_c       15.35785730700442
_cell_angle_alpha    98.76031000291654
_cell_angle_beta     98.36219767831524
_cell_angle_gamma    92.43729073213166

_space_group_name_H-M_alt    "P 1"
_space_group_IT_number       1

loop_
  _space_group_symop_operation_xyz
  'x, y, z'

loop_
  _atom_site_type_symbol
  _atom_site_label
  _atom_site_symmetry_multiplicity
  _atom_site_fract_x
  _atom_site_fract_y
  _atom_site_fract_z
  _atom_site_occupancy
  H   H1        1.0  0.7458608280147259  0.6616753125655136  0.07653372761207641  1.0000
  H   H2        1.0  0.25413917133585173  0.3383246868375816  0.923466272523212  1.0000
  H   H3        1.0  0.8613299962431695  0.8065780216175316  0.967228536588032  1.0000
  H   H4        1.0  0.1386700044275403  0.19342197897929297  0.03277146354158514  1.0000
  H   H5        1.0  0.9149477965479895  0.6518271084543361  0.8218862928568385  1.0000
  H   H6        1.0  0.08505220404804463  0.34817289092600817  0.1781137072778178  1.0000
  H   H7        1.0  0.8543207708358882  0.3444296544417693  0.7889721530663099  1.0000
  H   H8        1.0  0.14567922983482173  0.6555703461550552  0.2110278470633073  1.0000
  H   H9        1.0  0.7553752641789447  0.4674543802653329  0.1735150702929964  1.0000
  H   H10       1.0  0.2446247362210391  0.5325456189079516  0.826484929174924  1.0000
  H   H11       1.0  0.5846407990348841  0.31568483832309174  0.16704444867885918  1.0000
  H   H12       1.0  0.41535920039036905  0.6843151622964837  0.8329555514513901  1.0000
  H   H13       1.0  0.5443276401912475  0.5066202936653385  0.12758901680014173  1.0000
  H   H14       1.0  0.4556723592340056  0.49337970695423694  0.8724109833301076  1.0000
  H   H15       1.0  0.42829110310033086  0.9544293954750808  0.9420442794216141  1.0000
  H   H16       1.0  0.5717088975703789  0.045570605121743796  0.05795572070800314  1.0000
  H   H17       1.0  0.12386103266402841  0.9271156675120688  0.8777375382044839  1.0000
  H   H18       1.0  0.876138966686549  0.07288433189102654  0.12226246193080458  1.0000
  H   H19       1.0  0.025169306251939225  0.05291651958425328  0.7441762127543203  1.0000
  H   H20       1.0  0.9748306930986382  0.9470834798188421  0.25582378738096806  1.0000
  H   H21       1.0  0.22833801153063293  0.20945895021512234  0.6751723728349378  1.0000
  H   H22       1.0  0.7716619878946201  0.7905410504044531  0.3248276272953115  1.0000
  H   H23       1.0  0.5326743581573984  0.24582647592775952  0.7422906454382662  1.0000
  H   H24       1.0  0.4673256424386359  0.7541735234525848  0.25770935469639006  1.0000
  C   C1        1.0  0.7589012632154558  0.33575151062170877  0.9117074045116891  1.0000
  C   C2        1.0  0.241098737455254  0.6642484899751157  0.088292595617928  1.0000
  C   C3        1.0  0.7284726322595491  0.42213600559416875  0.9937769935601205  1.0000
  C   C4        1.0  0.27152736709102837  0.5778639938089266  0.006223006575167971  1.0000
  C   C5        1.0  0.7670638944957525  0.5925260970187066  0.013397613930576693  1.0000
  C   C6        1.0  0.23293610485482485  0.40747390238438874  0.9866023862047116  1.0000
  C   C7        1.0  0.8331780782961911  0.6734615504703434  0.9511245182824021  1.0000
  C   C8        1.0  0.16682192237451884  0.3265384501264811  0.04887548184721502  1.0000
  C   C9        1.0  0.863642055288687  0.5872587122735295  0.8699869415949052  1.0000
  C   C10       1.0  0.13635794538202292  0.41274128832329504  0.13001305853471196  1.0000
  C   C11       1.0  0.8277312138320071  0.41652330643113983  0.850531557270487  1.0000
  C   C12       1.0  0.1722687855185703  0.5834766929719555  0.14946844286480143  1.0000
  C   C13       1.0  0.6354999523752564  0.4117274551465405  0.1343391659310632  1.0000
  C   C14       1.0  0.3645000482954534  0.588272545450284  0.865660834198554  1.0000
  C   C15       1.0  0.496443656194573  0.10570516833962647  0.8472822116860913  1.0000
  C   C16       1.0  0.5035563429599542  0.8942948308564089  0.15271778778246115  1.0000
  C   C17       1.0  0.3840865940302878  0.013948132580545097  0.8850822158346979  1.0000
  C   C18       1.0  0.6159134053949654  0.9860518680390303  0.11491778429555152  1.0000
  C   C19       1.0  0.2134331168904161  0.9962596349715821  0.8478789760815405  1.0000
  C   C20       1.0  0.7865668837056181  0.0037403644087621937  0.15212102405311567  1.0000
  C   C21       1.0  0.1582781382649347  0.06652005694340014  0.7724915803164129  1.0000
  C   C22       1.0  0.8417218611603184  0.9334799436761753  0.2275084198138365  1.0000
  C   C23       1.0  0.27254241158152415  0.15583850427840706  0.7342726107543355  1.0000
  C   C24       1.0  0.7274575877690533  0.8441614951246882  0.26572738938095297  1.0000
  C   C25       1.0  0.44252930989028405  0.1766750362136784  0.7716793666736951  1.0000
  C   C26       1.0  0.5574706907804258  0.8233249643831461  0.22832063345592213  1.0000
  C   C27       1.0  0.9233706606937365  0.3616415833703545  0.5278678442694937  1.0000
  C   C28       1.0  0.07662933997697335  0.63835841722647  0.4721321558601235  1.0000
  C   C29       1.0  0.005254474320821687  0.49331501879415673  0.5897383712553138  1.0000
  C   C30       1.0  0.9947455250297557  0.5066849806089385  0.4102616288799745  1.0000
  C   C31       1.0  0.08038974965698374  0.6294169159968108  0.5625005845842116  1.0000
  C   C32       1.0  0.9196102509390504  0.37058308338353346  0.4374994155504446  1.0000
  C   C33       1.0  0.5663544966889572  0.6294657308501116  0.5705739400518307  1.0000
  C   C34       1.0  0.43364550266162016  0.37053426855298366  0.4294260600834577  1.0000
  C   C35       1.0  0.4698525027936003  0.4943264420393587  0.5856658999533938  1.0000
  C   C36       1.0  0.5301474976063836  0.5056735571339257  0.41433409951452654  1.0000
  C   C37       1.0  0.5949155556311845  0.6324901192568532  0.4834446556006645  1.0000
  C   C38       1.0  0.4050844437940687  0.3675098813627223  0.5165553445295848  1.0000
  O   O1        1.0  0.8044709107021205  0.054761158666150056  0.8116854435849131  1.0000
  O   O2        1.0  0.19552908977253908  0.9452388417236145  0.18831455587796808  1.0000
  O   O3        1.0  0.661527171337811  0.3298982267988027  0.04823449324084565  1.0000
  O   O4        1.0  0.3384728280874421  0.6701017738207727  0.9517655068894038  1.0000
  F   F1        1.0  0.014147853546588374  0.4909191670350674  0.6782804585630783  1.0000
  F   F2        1.0  0.9858521458039892  0.5090808323680279  0.3217195415722102  1.0000
  F   F3        1.0  0.15872792834778468  0.7525322123101919  0.6254377377246986  1.0000
  F   F4        1.0  0.8412720710774685  0.24746778830938362  0.37456226240555074  1.0000
  F   F5        1.0  0.6869629035552973  0.7610999609484537  0.46439292116159364  1.0000
  F   F6        1.0  0.3130370958699559  0.2389000396711218  0.5356070789686557  1.0000
  F   F7        1.0  0.4367068441825808  0.48464345290484084  0.6689452984949804  1.0000
  F   F8        1.0  0.5632931549719464  0.5153565462911945  0.33105470097357204  1.0000
  S   S1        1.0  0.7180081264601751  0.11555982474194025  0.8909271081699901  1.0000
  S   S2        1.0  0.2819918727690279  0.8844401756705751  0.10907289129352327  1.0000
  I   I1        1.0  0.8123730030117138  0.1572803927239859  0.569520255340536  1.0000
  I   I2        1.0  0.187626997658996  0.8427196078728387  0.4304797447890812  1.0000
  I   I3        1.0  0.6634472383185761  0.8191916877831434  0.67557291807796  1.0000
  I   I4        1.0  0.3365527623521337  0.18080831281368104  0.32442708205165727  1.0000
