data_image0
_chemical_formula_structural       H20C36O2F8S2I4
_chemical_formula_sum              "H20 C36 O2 F8 S2 I4"
_cell_length_a       10.200700402367186
_cell_length_b       10.013683309298282
_cell_length_c       11.048368962136232
_cell_angle_alpha    113.91700800415471
_cell_angle_beta     108.33869452967097
_cell_angle_gamma    99.78371736658329

_space_group_name_H-M_alt    "P 1"
_space_group_IT_number       1

loop_
  _space_group_symop_operation_xyz
  'x, y, z'

loop_
  _atom_site_type_symbol
  _atom_site_label
  _atom_site_symmetry_multiplicity
  _atom_site_fract_x
  _atom_site_fract_y
  _atom_site_fract_z
  _atom_site_occupancy
  H   H1        1.0  0.46671536941750397  0.7822273709885321  0.8513665305368417  1.0000
  H   H2        1.0  0.5332846308144156  0.21777262945790624  0.14863346993979074  1.0000
  H   H3        1.0  0.7078696937946132  0.9866914613101031  0.037469757086358246  1.0000
  H   H4        1.0  0.29213030643730625  0.013308539136335295  0.9625302433902743  1.0000
  H   H5        1.0  0.8401166113926756  0.16643089764844635  0.9772833696593405  1.0000
  H   H6        1.0  0.1598833883690234  0.8335691022358866  0.022716629723082214  1.0000
  H   H7        1.0  0.7277303094898279  0.14359482171483184  0.7302448154019545  1.0000
  H   H8        1.0  0.2722696907420916  0.8564051787316065  0.269755185074678  1.0000
  H   H9        1.0  0.4858278376696328  0.9328207441426192  0.5424125086239737  1.0000
  H   H10       1.0  0.5141721625622867  0.0671792563038192  0.45758749185265885  1.0000
  H   H11       1.0  0.10527687145505715  0.5732090439887394  0.6473181539928173  1.0000
  H   H12       1.0  0.8947231283066416  0.4267909558955934  0.3526818453896054  1.0000
  H   H13       1.0  0.9296329777905495  0.6691354936795767  0.7435081350471453  1.0000
  H   H14       1.0  0.07036702225782288  0.3308645057489017  0.2564918654205059  1.0000
  H   H15       1.0  0.9022855812718847  0.9206568100579151  0.769656886939303  1.0000
  H   H16       1.0  0.09771441896003463  0.07934319038852326  0.23034311353732945  1.0000
  H   H17       1.0  0.04603743921364184  0.07321995814888975  0.694293056836673  1.0000
  H   H18       1.0  0.953962560548057  0.9267800417354433  0.3057069425457498  1.0000
  H   H19       1.0  0.2208305473675671  0.9771069893493012  0.5975390110505884  1.0000
  H   H20       1.0  0.7791694528643524  0.02289301109713725  0.40246098942604425  1.0000
  C   C1        1.0  0.4648349857392407  0.8493326852057271  0.6875403104826803  1.0000
  C   C2        1.0  0.5351650144926788  0.1506673152407112  0.3124596899939522  1.0000
  C   C3        1.0  0.5246716167921954  0.8608208705646535  0.8252393895994073  1.0000
  C   C4        1.0  0.47532838296950336  0.13917912931967916  0.17476060978301533  1.0000
  C   C5        1.0  0.6602275513439185  0.9758787016944581  0.929287663957563  1.0000
  C   C6        1.0  0.33977244888800084  0.024121298751980363  0.0707123365190694  1.0000
  C   C7        1.0  0.7341022256657566  0.0769695739857596  0.895303155026002  1.0000
  C   C8        1.0  0.2658977745661629  0.9230304264606789  0.10469684545063054  1.0000
  C   C9        1.0  0.6718964646530804  0.06435696014672944  0.7572680274004084  1.0000
  C   C10       1.0  0.32810353492507127  0.9356430387196436  0.24273197197303303  1.0000
  C   C11       1.0  0.5366534893653523  0.9488830503291805  0.6521279523378293  1.0000
  C   C12       1.0  0.46334651086656725  0.05111695011725787  0.34787204813880324  1.0000
  C   C13       1.0  0.17283024785353876  0.7707705569976915  0.6186193737310871  1.0000
  C   C14       1.0  0.8271697521948335  0.22922944243078686  0.381380626736564  1.0000
  C   C15       1.0  0.09152447534635867  0.6823348289532853  0.6577518364939682  1.0000
  C   C16       1.0  0.9084755244153403  0.31766517093104746  0.34224816288845467  1.0000
  C   C17       1.0  0.9931466502358307  0.7364248292302151  0.7116621786897549  1.0000
  C   C18       1.0  0.00685334999608881  0.2635751712162232  0.28833782178687756  1.0000
  C   C19       1.0  0.9773380131777164  0.8771582468661353  0.7254119019776119  1.0000
  C   C20       1.0  0.022661986583982597  0.12284175301819764  0.274588097404811  1.0000
  C   C21       1.0  0.05854696177405552  0.9634864162939558  0.683543372220422  1.0000
  C   C22       1.0  0.941453038274317  0.03651358313452264  0.3164566282472291  1.0000
  C   C23       1.0  0.1567719408650185  0.9106283619364022  0.6297572228996934  1.0000
  C   C24       1.0  0.8432280593669009  0.08937163851003628  0.3702427775769392  1.0000
  C   C25       1.0  0.4848378024876417  0.5939030865065625  0.224212992517142  1.0000
  C   C26       1.0  0.5151621972740572  0.40609691337777043  0.7757870068652808  1.0000
  C   C27       1.0  0.3668955077560885  0.4772031602826334  0.20016964363847006  1.0000
  C   C28       1.0  0.633104492475831  0.5227968401638051  0.7998303568381625  1.0000
  C   C29       1.0  0.2351300361097709  0.4110109417500083  0.07514493161224899  1.0000
  C   C30       1.0  0.7648699636519279  0.5889890581343247  0.9248550677701738  1.0000
  C   C31       1.0  0.21432079870471457  0.46217988249028147  0.9726283979168018  1.0000
  C   C32       1.0  0.7856792013436578  0.537820116938197  0.027371602550849368  1.0000
  C   C33       1.0  0.3324691165415104  0.5782983507240086  0.9970543768331823  1.0000
  C   C34       1.0  0.667530883690409  0.4217016497224298  0.0029456236434502623  1.0000
  C   C35       1.0  0.4656866177240421  0.6429436813970376  0.12017610288412088  1.0000
  C   C36       1.0  0.5343133825078775  0.3570563190494008  0.8798238975925117  1.0000
  O   O1        1.0  0.27094072559121113  0.7155075509818508  0.412124113796001  1.0000
  O   O2        1.0  0.7290592746407083  0.2844924494645876  0.5878758866806315  1.0000
  F   F1        1.0  0.5763649592285608  0.7550429389528315  0.13716904129517857  1.0000
  F   F2        1.0  0.4236350408198116  0.244957060475647  0.8628309591724727  1.0000
  F   F3        1.0  0.3191705520605586  0.6319418292371388  0.9006116561550233  1.0000
  F   F4        1.0  0.6808294477011402  0.3680581706471941  0.09938834322739955  1.0000
  F   F5        1.0  0.12487545633153048  0.29606078183896917  0.05550592758117137  1.0000
  F   F6        1.0  0.8751245437168418  0.7039392175895093  0.9444940728864798  1.0000
  F   F7        1.0  0.3784389103247692  0.4277413658618045  0.29893709853066314  1.0000
  F   F8        1.0  0.6215610894369297  0.5722586340225284  0.7010629008517597  1.0000
  S   S1        1.0  0.2953096765835648  0.6957811920922332  0.545655994846719  1.0000
  S   S2        1.0  0.7046903236483547  0.30421880835420523  0.45434400562991356  1.0000
  I   I1        1.0  0.6826533816895454  0.692902010718111  0.4104832539334686  1.0000
  I   I2        1.0  0.3173466180721535  0.307097989166222  0.5895167454489543  1.0000
  I   I3        1.0  0.008536108313797476  0.3793067351080634  0.7972061940092962  1.0000
  I   I4        1.0  0.9914638914479015  0.6206932647762695  0.2027938053731267  1.0000
