data_image0
_chemical_formula_structural       H48C76O4F16S4I8
_chemical_formula_sum              "H48 C76 O4 F16 S4 I8"
_cell_length_a       13.969190692096422
_cell_length_b       5.72881458697735
_cell_length_c       23.925910556716076
_cell_angle_alpha    90.0
_cell_angle_beta     90.34361567744239
_cell_angle_gamma    90.0

_space_group_name_H-M_alt    "P 1"
_space_group_IT_number       1

loop_
  _space_group_symop_operation_xyz
  'x, y, z'

loop_
  _atom_site_type_symbol
  _atom_site_label
  _atom_site_symmetry_multiplicity
  _atom_site_fract_x
  _atom_site_fract_y
  _atom_site_fract_z
  _atom_site_occupancy
  H   H1        1.0  0.5458037050221438  0.3992130021451229  0.34714789618771336  1.0000
  H   H2        1.0  0.45419629496757097  0.899213001536153  0.1528521037224303  1.0000
  H   H3        1.0  0.4541962951228842  0.6007869983824994  0.6528521035434325  1.0000
  H   H4        1.0  0.5458037051808928  0.10078699899146916  0.8471478964266799  1.0000
  H   H5        1.0  0.506883967507814  0.7378431865483435  0.28597721092910505  1.0000
  H   H6        1.0  0.4931160324853366  0.23784318715731323  0.21402278939900274  1.0000
  H   H7        1.0  0.4931160326406498  0.2621568139792788  0.714022789220005  1.0000
  H   H8        1.0  0.5068839669472615  0.762156813370309  0.7859772107496067  1.0000
  H   H9        1.0  0.3480402575182714  0.7578103539724778  0.23744214128224045  1.0000
  H   H10       1.0  0.6519597424714433  0.25781035458144763  0.2625578586279032  1.0000
  H   H11       1.0  0.6519597426267565  0.2421896465551444  0.7625578584489054  1.0000
  H   H12       1.0  0.34804025767702046  0.7421896459461745  0.7374421415212069  1.0000
  H   H13       1.0  0.4266902024021527  0.08075011906504716  0.3604187869014628  1.0000
  H   H14       1.0  0.5733097975875621  0.5807501184560774  0.13958121300868087  1.0000
  H   H15       1.0  0.5733097977463111  0.9192498814625751  0.6395812132476472  1.0000
  H   H16       1.0  0.4266902018416003  0.41924988207154484  0.8604187867219644  1.0000
  H   H17       1.0  0.2692121743092058  0.09826023192993687  0.3111953819027845  1.0000
  H   H18       1.0  0.7307878256839446  0.5982602313209671  0.18880461842532328  1.0000
  H   H19       1.0  0.7307878258392579  0.9017397685976853  0.6888046182463256  1.0000
  H   H20       1.0  0.269212174464519  0.40173976746109336  0.8111953817237868  1.0000
  H   H21       1.0  0.14823499731403442  0.36617815747931687  0.3594304810364654  1.0000
  H   H22       1.0  0.8517650026756802  0.866178156870347  0.1405695188736782  1.0000
  H   H23       1.0  0.8517650028309935  0.6338218430483052  0.6405695186946804  1.0000
  H   H24       1.0  0.14823499747278346  0.1338218436572751  0.8594304812754318  1.0000
  H   H25       1.0  0.061125192119173034  0.5985902001079298  0.4293547267754235  1.0000
  H   H26       1.0  0.9388748078705416  0.0985901989713379  0.07064527313472012  1.0000
  H   H27       1.0  0.938874807313425  0.40140980041969226  0.5706452733731858  1.0000
  H   H28       1.0  0.06112519227448626  0.9014097998107224  0.9293547265964258  1.0000
  H   H29       1.0  0.011777091917141621  0.13640882212812477  0.30694527896432483  1.0000
  H   H30       1.0  0.9882229080725732  0.636408821519155  0.19305472094581883  1.0000
  H   H31       1.0  0.9882229082313221  0.8635911783994974  0.6930547211847852  1.0000
  H   H32       1.0  0.011777092072454849  0.36359117900846727  0.8069452787853271  1.0000
  H   H33       1.0  0.01000964332282784  0.18903727177028318  0.42411205132545116  1.0000
  H   H34       1.0  0.9899903573861883  0.6890372711613133  0.0758879490031573  1.0000
  H   H35       1.0  0.989990356825636  0.8109627287573391  0.5758879488236589  1.0000
  H   H36       1.0  0.01000964276227535  0.310962727620747  0.9241120511459529  1.0000
  H   H37       1.0  0.9668757963378424  0.927260571859908  0.45479404106120447  1.0000
  H   H38       1.0  0.03312420365187229  0.4272605707233159  0.0452059588489392  1.0000
  H   H39       1.0  0.03312420381062133  0.07273942866771428  0.5452059590879056  1.0000
  H   H40       1.0  0.9668757964931557  0.5727394280587444  0.9547940408822065  1.0000
  H   H41       1.0  0.9023607413968833  0.06408514439174876  0.39908513591122263  1.0000
  H   H42       1.0  0.09763925859283143  0.564085143782779  0.10091486399892098  1.0000
  H   H43       1.0  0.0976392587515805  0.9359148561358736  0.6009148642378873  1.0000
  H   H44       1.0  0.9023607415521964  0.43591485674484326  0.8990851357322249  1.0000
  H   H45       1.0  0.0989985626452497  0.9031873246102068  0.2360277203330362  1.0000
  H   H46       1.0  0.9010014373444651  0.4031873252191766  0.2639722795771075  1.0000
  H   H47       1.0  0.9010014374997782  0.09681267591741537  0.7639722793981097  1.0000
  H   H48       1.0  0.09899856280399874  0.5968126753084455  0.7360277205720026  1.0000
  C   C1        1.0  0.3333183589706418  0.5752887250866494  0.9923304705676547  1.0000
  C   C2        1.0  0.6666816406172694  0.07528872569561924  0.507669529401957  1.0000
  C   C3        1.0  0.6666816404619563  0.4247112736954109  0.0076695295809547535  1.0000
  C   C4        1.0  0.3333183595277585  0.924711274832003  0.4923304703291889  1.0000
  C   C5        1.0  0.2764897224149879  0.2403691355503533  0.07304422896834545  1.0000
  C   C6        1.0  0.7235102775781627  0.7403691349413835  0.4269557713597623  1.0000
  C   C7        1.0  0.7235102777334759  0.7596308649772688  0.9269557711807646  1.0000
  C   C8        1.0  0.27648972257030113  0.2596308655862387  0.5730442287893477  1.0000
  C   C9        1.0  0.23149703650744977  0.2541438438782128  0.020937199567978834  1.0000
  C   C10       1.0  0.768502963482265  0.754143843269243  0.4790628003421648  1.0000
  C   C11       1.0  0.768502963641014  0.7458561566494094  0.9790628005811312  1.0000
  C   C12       1.0  0.2314970359503331  0.2458561572583792  0.5209371998064446  1.0000
  C   C13       1.0  0.25920628536836815  0.41825129852286375  0.981224616496022  1.0000
  C   C14       1.0  0.7407937149354088  0.9182512996594557  0.5187753834740901  1.0000
  C   C15       1.0  0.7407937147800956  0.5817487002591967  0.018775383653087927  1.0000
  C   C16       1.0  0.25920628520961914  0.08174870086816646  0.48122461625705576  1.0000
  C   C17       1.0  0.35042219573739164  0.39740130273638424  0.08406109418155201  1.0000
  C   C18       1.0  0.649577804252323  0.8974013021274143  0.4159389057285916  1.0000
  C   C19       1.0  0.6495778044076361  0.602598697791238  0.9159389055495939  1.0000
  C   C20       1.0  0.3504221958961407  0.10259869840020777  0.5840610944205183  1.0000
  C   C21       1.0  0.3786706222553253  0.5604192440261802  0.044290552343138195  1.0000
  C   C22       1.0  0.6213293777343893  0.06041924463514994  0.4557094475670055  1.0000
  C   C23       1.0  0.6213293778897028  0.439580756501442  0.9557094473880077  1.0000
  C   C24       1.0  0.37867062169820864  0.9395807558924723  0.544290552581604  1.0000
  C   C25       1.0  0.3003063850890428  0.43121478667079904  0.2726635596913314  1.0000
  C   C26       1.0  0.699693614900672  0.931214787807391  0.2273364402188122  1.0000
  C   C27       1.0  0.6996936150594208  0.5687852121112613  0.7273364404577786  1.0000
  C   C28       1.0  0.300306385244356  0.06878521272023111  0.7726635595123337  1.0000
  C   C29       1.0  0.4764717938202108  0.40850950130588554  0.32625183626288934  1.0000
  C   C30       1.0  0.5235282061695038  0.9085095024424775  0.17374816364725432  1.0000
  C   C31       1.0  0.5235282063282529  0.5914904974761749  0.6737481638862206  1.0000
  C   C32       1.0  0.4764717939755241  0.09149049808514464  0.8262518360838915  1.0000
  C   C33       1.0  0.454919265601455  0.5981608931435205  0.29146306087433616  1.0000
  C   C34       1.0  0.5450807343882597  0.09816089375249025  0.20853693903580747  1.0000
  C   C35       1.0  0.5450807345435729  0.40183910563854  0.7085369388568096  1.0000
  C   C36       1.0  0.45491926504433833  0.9018391067751319  0.7914630611128018  1.0000
  C   C37       1.0  0.3662910286439028  0.6108866794110186  0.26449263583724714  1.0000
  C   C38       1.0  0.6337089713458119  0.1108866800199885  0.23550736407289652  1.0000
  C   C39       1.0  0.633708971504561  0.3891133211166035  0.7355073643118629  1.0000
  C   C40       1.0  0.3662910287992161  0.8891133205076338  0.7644926356582494  1.0000
  C   C41       1.0  0.40991287208855115  0.22912583922402122  0.3336373022419822  1.0000
  C   C42       1.0  0.5900871279011636  0.7291258386150513  0.16636269766816142  1.0000
  C   C43       1.0  0.5900871280599126  0.770874161303601  0.6663626979071278  1.0000
  C   C44       1.0  0.40991287224386436  0.27087416016700894  0.8336373020629844  1.0000
  C   C45       1.0  0.32141325391237147  0.23848206976460165  0.3062174288183935  1.0000
  C   C46       1.0  0.6785867460773433  0.7384820709011937  0.19378257109175018  1.0000
  C   C47       1.0  0.6785867462326564  0.7615179290174586  0.6937825709127523  1.0000
  C   C48       1.0  0.3214132540711205  0.26151792962642856  0.8062174290573598  1.0000
  C   C49       1.0  0.12794748489147117  0.6207210245699751  0.29340216090821314  1.0000
  C   C50       1.0  0.8720525150982437  0.12072102517894498  0.20659783900193052  1.0000
  C   C51       1.0  0.8720525152569926  0.37927897595764704  0.7065978392408969  1.0000
  C   C52       1.0  0.1279474850467844  0.8792789753486772  0.7934021607292153  1.0000
  C   C53       1.0  0.11752200216051763  0.5337425628943799  0.3475425955851433  1.0000
  C   C54       1.0  0.882477997829197  0.033742563503349816  0.15245740432500035  1.0000
  C   C55       1.0  0.8824779979845103  0.4662574376332422  0.6524574041460026  1.0000
  C   C56       1.0  0.11752200231926666  0.9662574370242725  0.8475425958241096  1.0000
  C   C57       1.0  0.028399902426599958  0.8826387873495323  0.37305577893033864  1.0000
  C   C58       1.0  0.9716000975631147  0.3826387879585021  0.12694422097980498  1.0000
  C   C59       1.0  0.9716000977184279  0.11736121317808992  0.6269442208008073  1.0000
  C   C60       1.0  0.028399902585349007  0.6173612125691201  0.8730557791693049  1.0000
  C   C61       1.0  0.06808603338221347  0.6652175912034045  0.3868707878280605  1.0000
  C   C62       1.0  0.9319139666075013  0.16521759006681255  0.11312921208208308  1.0000
  C   C63       1.0  0.9319139667628145  0.3347824093242176  0.6131292119030852  1.0000
  C   C64       1.0  0.06808603354096252  0.8347824087152478  0.8868707880670269  1.0000
  C   C65       1.0  0.041022889291763134  0.9667673173765952  0.31849353003944164  1.0000
  C   C66       1.0  0.9589771106979516  0.4667673162400032  0.181506469870702  1.0000
  C   C67       1.0  0.9589771108532649  0.03323268315102702  0.6815064696917043  1.0000
  C   C68       1.0  0.04102288945051219  0.5332326825420572  0.818493530278408  1.0000
  C   C69       1.0  0.9740017445573775  0.022413165594829827  0.4153000287129431  1.0000
  C   C70       1.0  0.025998255432337032  0.52241316498586  0.08469997119720056  1.0000
  C   C71       1.0  0.025998254871784546  0.9775868349327923  0.5846999710177022  1.0000
  C   C72       1.0  0.9740017447161268  0.4775868337962003  0.9153000289519094  1.0000
  C   C73       1.0  0.09005868903603431  0.8371667222224521  0.27842204653785946  1.0000
  C   C74       1.0  0.9099413109536805  0.33716672283142207  0.22157795337228417  1.0000
  C   C75       1.0  0.9099413111124294  0.16283327830516994  0.7215779536112505  1.0000
  C   C76       1.0  0.09005868919134752  0.6628332776962002  0.7784220463588618  1.0000
  O   O1        1.0  0.18960885899660712  0.5884325315158482  0.18859290269064483  1.0000
  O   O2        1.0  0.8103911409965434  0.08843253212481791  0.31140709763746294  1.0000
  O   O3        1.0  0.8103911411518566  0.4115674690117741  0.8114070974584652  1.0000
  O   O4        1.0  0.18960885915192038  0.9115674684028042  0.6885929025116471  1.0000
  F   F1        1.0  0.39659277310991065  0.39416132006314614  0.13395574751001574  1.0000
  F   F2        1.0  0.6034072268798041  0.8941613211997382  0.3660442524001279  1.0000
  F   F3        1.0  0.6034072270385531  0.6058386787189142  0.8660442526390941  1.0000
  F   F4        1.0  0.39659277326522385  0.105838679327884  0.633955747331018  1.0000
  F   F5        1.0  0.4515116201815572  0.7076002004349783  0.05684168647852066  1.0000
  F   F6        1.0  0.5484883798081576  0.20760020104394805  0.443158313431623  1.0000
  F   F7        1.0  0.5484883792510409  0.292399800092644  0.9431583136700887  1.0000
  F   F8        1.0  0.45151162033687037  0.7923997994836742  0.5568416862995229  1.0000
  F   F9        1.0  0.15962175859137867  0.10436979604108175  0.007689545475472991  1.0000
  F   F10       1.0  0.840378241398336  0.6043697971776737  0.49231045443467064  1.0000
  F   F11       1.0  0.8403782415536492  0.8956302027409786  0.992310454255673  1.0000
  F   F12       1.0  0.1596217587501277  0.3956302033499484  0.5076895457144394  1.0000
  F   F13       1.0  0.21353229525906206  0.4210686387867098  0.931183202529644  1.0000
  F   F14       1.0  0.7864677043288493  0.9210686399233018  0.5688167974399676  1.0000
  F   F15       1.0  0.786467704173536  0.5789313599953505  0.0688167976189654  1.0000
  F   F16       1.0  0.21353229581961455  0.07893136060432039  0.43118320270914234  1.0000
  S   S1        1.0  0.18358415408681722  0.44208190744330905  0.24067241571077444  1.0000
  S   S2        1.0  0.8164158459028974  0.9420819068343393  0.2593275841993692  1.0000
  S   S3        1.0  0.8164158460582106  0.5579180930843131  0.7593275840203715  1.0000
  S   S4        1.0  0.18358415352970053  0.05791809194772109  0.7406724159492403  1.0000
  I   I1        1.0  0.23817847205717915  0.9825392346953006  0.13060134391789793  1.0000
  I   I2        1.0  0.7618215279325357  0.48253923530427034  0.36939865599224564  1.0000
  I   I3        1.0  0.761821527371983  0.017460765832321652  0.8693986558127472  1.0000
  I   I4        1.0  0.2381784722159282  0.5174607652233518  0.6306013441568643  1.0000
  I   I5        1.0  0.37662498237622816  0.8229184901037955  0.9336673790800978  1.0000
  I   I6        1.0  0.623375017211683  0.3229184889672035  0.5663326208895137  1.0000
  I   I7        1.0  0.6233750177687999  0.1770815104238267  0.06633262065104793  1.0000
  I   I8        1.0  0.3766249822209149  0.6770815098148569  0.43366737925909565  1.0000
