data_image0
_chemical_formula_structural       H36C38O2F4S2I2
_chemical_formula_sum              "H36 C38 O2 F4 S2 I2"
_cell_length_a       5.456395196095944
_cell_length_b       12.64052073066045
_cell_length_c       13.188467609241549
_cell_angle_alpha    101.07951684065947
_cell_angle_beta     94.531981519948
_cell_angle_gamma    95.31572246537873

_space_group_name_H-M_alt    "P 1"
_space_group_IT_number       1

loop_
  _space_group_symop_operation_xyz
  'x, y, z'

loop_
  _atom_site_type_symbol
  _atom_site_label
  _atom_site_symmetry_multiplicity
  _atom_site_fract_x
  _atom_site_fract_y
  _atom_site_fract_z
  _atom_site_occupancy
  H   H1        1.0  0.7976971083493858  0.3857342224436581  0.06204492379262993  1.0000
  H   H2        1.0  0.20230289072105734  0.6142657775249102  0.9379550758644633  1.0000
  H   H3        1.0  0.9413299466963313  0.31755828960138344  0.9537891353455401  1.0000
  H   H4        1.0  0.058670054223055504  0.6824417097249978  0.04621086507644092  1.0000
  H   H5        1.0  0.4356004190707013  0.40801396253021827  0.940973612569353  1.0000
  H   H6        1.0  0.5643995799997418  0.5919860374383499  0.05902638708774012  1.0000
  H   H7        1.0  0.7129972896834536  0.4767262360669647  0.9143946260525434  1.0000
  H   H8        1.0  0.28700270957725565  0.5232737640565932  0.0856053743809614  1.0000
  H   H9        1.0  0.21965286497714837  0.25166961966845036  0.8138500704992261  1.0000
  H   H10       1.0  0.7803471340932948  0.748330380300118  0.186149929157867  1.0000
  H   H11       1.0  0.1594972718354064  0.15270458419829122  0.6321355866412763  1.0000
  H   H12       1.0  0.8405027292570623  0.8472954159242165  0.36786441378853196  1.0000
  H   H13       1.0  0.47629655419631517  0.1829842938335729  0.5099929086721803  1.0000
  H   H14       1.0  0.523703444874128  0.8170157061349954  0.49000709098491274  1.0000
  H   H15       1.0  0.8599157933379074  0.30783297828360484  0.5759106681244981  1.0000
  H   H16       1.0  0.1400842075642953  0.6921670216839132  0.42408933152889855  1.0000
  H   H17       1.0  0.9222083004027705  0.40476879824876416  0.7593162928656177  1.0000
  H   H18       1.0  0.07779170068969837  0.5952312018737437  0.24068370756419066  1.0000
  H   H19       1.0  0.9802104888040084  0.17003493850489398  0.05796476095644692  1.0000
  H   H20       1.0  0.019789510266434787  0.8299650614636741  0.9420352387006461  1.0000
  H   H21       1.0  0.823973886874947  0.24589864336076722  0.15629730991354301  1.0000
  H   H22       1.0  0.17602611402725576  0.7541013566067508  0.8437026897398536  1.0000
  H   H23       1.0  0.5120854735814384  0.08063935946161695  0.14599072802389496  1.0000
  H   H24       1.0  0.4879145275110303  0.9193606406608908  0.8540092724059133  1.0000
  H   H25       1.0  0.6852472378296254  0.004601139219408961  0.055064131968631344  1.0000
  H   H26       1.0  0.3147527630725773  0.995398860748109  0.9449358676847652  1.0000
  H   H27       1.0  0.7100436247200445  0.15681739988076665  0.3288466920935494  1.0000
  H   H28       1.0  0.2899563763724244  0.8431826002417412  0.671153308336259  1.0000
  H   H29       1.0  0.996735675970146  0.12300002606778077  0.47199754561558244  1.0000
  H   H30       1.0  0.0032643249320568877  0.8769999738997373  0.5280024540378142  1.0000
  H   H31       1.0  0.31686606296633246  0.9959639594193044  0.4335202485701987  1.0000
  H   H32       1.0  0.6831339381261363  0.004036040703203502  0.5664797518596096  1.0000
  H   H33       1.0  0.34804911836871594  0.9035434871494579  0.25182623511178837  1.0000
  H   H34       1.0  0.6519508827237529  0.09645651297304998  0.7481737653180202  1.0000
  H   H35       1.0  0.057815634739896  0.9375837585231831  0.10877150353291887  1.0000
  H   H36       1.0  0.942184366352573  0.06241624159932476  0.8912284968968895  1.0000
  C   C1        1.0  0.7639308217296725  0.33803045358139117  0.9822507833980736  1.0000
  C   C2        1.0  0.23606917917253017  0.6619695463861269  0.017749216255323018  1.0000
  C   C3        1.0  0.6148208796896577  0.3956468456110995  0.9104062551190805  1.0000
  C   C4        1.0  0.3851791214028111  0.6043531545114084  0.08959374531072783  1.0000
  C   C5        1.0  0.5750996416489054  0.33552258681997627  0.799100912159497  1.0000
  C   C6        1.0  0.4249003592532973  0.6644774131475419  0.20089908749389965  1.0000
  C   C7        1.0  0.36103888896543845  0.26414635636418254  0.7619372126463555  1.0000
  C   C8        1.0  0.6389611121270302  0.7358536437583251  0.23806278778345277  1.0000
  C   C9        1.0  0.3265911935601835  0.20847464554599354  0.6587798340063439  1.0000
  C   C10       1.0  0.6734088075322853  0.7915253545765144  0.34122016642346437  1.0000
  C   C11       1.0  0.5050088244731344  0.22445623730553368  0.5912803233642003  1.0000
  C   C12       1.0  0.4949911745973087  0.7755437626630346  0.40871967629289285  1.0000
  C   C13       1.0  0.7201164932529005  0.29462561371573937  0.6279035639315923  1.0000
  C   C14       1.0  0.2798835058175427  0.7053743862528289  0.37209643572550066  1.0000
  C   C15       1.0  0.7547867059381518  0.3494228585977352  0.7311976443360181  1.0000
  C   C16       1.0  0.24521329496405092  0.6505771413697828  0.2688023553173785  1.0000
  C   C17       1.0  0.8008257537522967  0.1768623202297153  0.0901743674660607  1.0000
  C   C18       1.0  0.19917424550841234  0.8231376798938427  0.9098256329674441  1.0000
  C   C19       1.0  0.699053894241718  0.07264092693030869  0.12184765137571861  1.0000
  C   C20       1.0  0.30094610482872514  0.9273590730382596  0.8781523482813745  1.0000
  C   C21       1.0  0.8663753317461155  0.04953221506653531  0.2093348668512592  1.0000
  C   C22       1.0  0.1336246675145938  0.9504677850570227  0.7906651335822457  1.0000
  C   C23       1.0  0.850261266910768  0.10136096303096072  0.31207025874326116  1.0000
  C   C24       1.0  0.14973873399143478  0.8986390369365573  0.6879297409101354  1.0000
  C   C25       1.0  0.011936482045490703  0.08253268486482566  0.39235734511752207  1.0000
  C   C26       1.0  0.9880635190469782  0.9174673152576822  0.6076426553122863  1.0000
  C   C27       1.0  0.19156317103345694  0.011641035749611056  0.37086335767769363  1.0000
  C   C28       1.0  0.8084368280369862  0.9883589642189572  0.6291366419793994  1.0000
  C   C29       1.0  0.2090652023700276  0.9593503823932995  0.26867665953995784  1.0000
  C   C30       1.0  0.7909347987224411  0.04064961772920841  0.7313233408898505  1.0000
  C   C31       1.0  0.04667332085538562  0.978553042177203  0.1887558500740205  1.0000
  C   C32       1.0  0.953326680237083  0.021446957945304834  0.8112441503557879  1.0000
  C   C33       1.0  0.4568655911840663  0.4381715551369609  0.39728875160401134  1.0000
  C   C34       1.0  0.5431344078863768  0.5618284448316074  0.6027112480530817  1.0000
  C   C35       1.0  0.6672440014487042  0.5121518948736116  0.42896165070434805  1.0000
  C   C36       1.0  0.3327559976217389  0.48784810509495663  0.5710383489527449  1.0000
  C   C37       1.0  0.29041348072959294  0.42672596200633134  0.47031637854904235  1.0000
  C   C38       1.0  0.7095865183408501  0.5732740379622369  0.5296836211080507  1.0000
  O   O1        1.0  0.3540866551769987  0.23624051845100077  0.03600298433965384  1.0000
  O   O2        1.0  0.6459133438934445  0.7637594815175673  0.9639970153174393  1.0000
  F   F1        1.0  0.8349651155014075  0.5261058906827956  0.3609414499314604  1.0000
  F   F2        1.0  0.16503488540079536  0.4738941092847225  0.6390585497219362  1.0000
  F   F3        1.0  0.08370152699743708  0.3551435939290349  0.4441324293748982  1.0000
  F   F4        1.0  0.9162984739047656  0.644856406038483  0.5558675702784984  1.0000
  S   S1        1.0  0.5927542236819494  0.2091389136335533  0.9891680308448737  1.0000
  S   S2        1.0  0.40724577557875974  0.7908610864900045  0.010831969588631148  1.0000
  I   I1        1.0  0.3952699849456493  0.34999296988937406  0.24341324509952605  1.0000
  I   I2        1.0  0.6047300143150599  0.6500070302341839  0.7565867553339788  1.0000
