data_image0
_chemical_formula_structural       H24C28N4O6Cl2I2
_chemical_formula_sum              "H24 C28 N4 O6 Cl2 I2"
_cell_length_a       4.269522205245762
_cell_length_b       11.563062895812003
_cell_length_c       15.200407816349859
_cell_angle_alpha    78.19332421710229
_cell_angle_beta     89.71995021722783
_cell_angle_gamma    87.86163895774428

_space_group_name_H-M_alt    "P 1"
_space_group_IT_number       1

loop_
  _space_group_symop_operation_xyz
  'x, y, z'

loop_
  _atom_site_type_symbol
  _atom_site_label
  _atom_site_symmetry_multiplicity
  _atom_site_fract_x
  _atom_site_fract_y
  _atom_site_fract_z
  _atom_site_occupancy
  H   H1        1.0  0.8916056209469103  0.6718567485928686  0.19339075014455956  1.0000
  H   H2        1.0  0.10839437956145626  0.3281432512855121  0.806609249585621  1.0000
  H   H3        1.0  0.32438490027163924  0.4894466961575742  0.04986937734800818  1.0000
  H   H4        1.0  0.6756151002367273  0.5105533037208064  0.9501306223821722  1.0000
  H   H5        1.0  0.6254843080803487  0.31106622546552265  0.2942653900242593  1.0000
  H   H6        1.0  0.3745156924184837  0.6889337742297694  0.7057346103780016  1.0000
  H   H7        1.0  0.2272250659080509  0.2772971220754206  0.06964726655451008  1.0000
  H   H8        1.0  0.7727749321693197  0.7227028786686633  0.9303527331727062  1.0000
  H   H9        1.0  0.3682104206390367  0.8887041714702654  0.07604605784927605  1.0000
  H   H10       1.0  0.6317895798693299  0.11129582840811517  0.9239539418809043  1.0000
  H   H11       1.0  0.06828609202211448  0.8533088042433765  0.15928307296218558  1.0000
  H   H12       1.0  0.9317139061441334  0.1466911956357495  0.8407169267633048  1.0000
  H   H13       1.0  0.9743865422836212  0.8741062265115399  0.04285843623255773  1.0000
  H   H14       1.0  0.025613455793749403  0.12589377423254403  0.9571415634946585  1.0000
  H   H15       1.0  0.6676017899367124  0.5237767383274852  0.29371577380019026  1.0000
  H   H16       1.0  0.33239821057165436  0.4762232615508953  0.7062842259299901  1.0000
  H   H17       1.0  0.9054890582670978  0.6189288656516521  0.5916061019190757  1.0000
  H   H18       1.0  0.0945109398896162  0.3810711340443856  0.40839389847849505  1.0000
  H   H19       1.0  0.25951023437875176  0.5453029070525667  0.4835370480721862  1.0000
  H   H20       1.0  0.7404897660312035  0.45469709350768334  0.5164629523318005  1.0000
  H   H21       1.0  0.8975057870076657  0.9674643981092006  0.4228365327989754  1.0000
  H   H22       1.0  0.10249421114904818  0.03253560158683707  0.5771634675985953  1.0000
  H   H23       1.0  0.2581037404967163  0.8931066836707144  0.31536620789855063  1.0000
  H   H24       1.0  0.7418962600116504  0.10689331620766614  0.6846337918316298  1.0000
  C   C1        1.0  0.023677023755140317  0.5138455051954043  0.15988838540450492  1.0000
  C   C2        1.0  0.9763229744015737  0.48615449450063336  0.8401116149930657  1.0000
  C   C3        1.0  0.9116878358683729  0.2762570617493576  0.18311736725803163  1.0000
  C   C4        1.0  0.08831216463045954  0.7237429379459346  0.816882633144229  1.0000
  C   C5        1.0  0.17065858739646073  0.4473278738498721  0.10274730681734158  1.0000
  C   C6        1.0  0.8293414131119059  0.5526721260285085  0.8972526929128389  1.0000
  C   C7        1.0  0.22384796380720745  0.7110084428419206  0.09350498313544935  1.0000
  C   C8        1.0  0.7761520366027479  0.2889915577183295  0.9064950172685373  1.0000
  C   C9        1.0  0.7813167103351212  0.3464005598072543  0.23902401826013453  1.0000
  C   C10       1.0  0.2186832877422494  0.6535994409368295  0.7609759814670819  1.0000
  C   C11       1.0  0.11285667827958153  0.3277589339545377  0.11456821977225337  1.0000
  C   C12       1.0  0.8871433222192512  0.6722410657407545  0.8854317806300075  1.0000
  C   C13       1.0  0.15464531355412597  0.8397282488188116  0.09403879728835172  1.0000
  C   C14       1.0  0.8453546868558293  0.1602717517414385  0.905961203115635  1.0000
  C   C15       1.0  0.88635049301842  0.7976257438562119  0.5133773490767282  1.0000
  C   C16       1.0  0.11364950748041265  0.2023742558390803  0.4866226513255326  1.0000
  C   C17       1.0  0.2803228071031211  0.7142248223306426  0.39217505615913656  1.0000
  C   C18       1.0  0.7196771933957117  0.2857751773646497  0.6078249442431242  1.0000
  C   C19       1.0  0.9839841619964603  0.6785546277437414  0.5312136118988924  1.0000
  C   C20       1.0  0.016015838502372398  0.3214453719515508  0.4687863885033683  1.0000
  C   C21       1.0  0.4894429521533944  0.6697026139941052  0.32716515983919037  1.0000
  C   C22       1.0  0.510557048266095  0.33029738674923337  0.672834839892716  1.0000
  C   C23       1.0  0.1801840380269049  0.6375695542279795  0.47007431950327305  1.0000
  C   C24       1.0  0.8198159623830503  0.3624304463322705  0.5299256809007136  1.0000
  C   C25       1.0  0.9799519449059029  0.8753998892546043  0.4357152266582421  1.0000
  C   C26       1.0  0.02004805326034513  0.12460011062452175  0.5642847730672483  1.0000
  C   C27       1.0  0.17966955158738138  0.8333654241643702  0.3757786230905998  1.0000
  C   C28       1.0  0.8203304489209854  0.1666345757140104  0.6242213766395807  1.0000
  N   N1        1.0  0.045718648935514944  0.6346142312510853  0.15298852463564305  1.0000
  N   N2        1.0  0.9542813515728518  0.36538576862729527  0.8470114750945373  1.0000
  N   N3        1.0  0.8380896883505188  0.4617045446642492  0.22749962850180092  1.0000
  N   N4        1.0  0.16191031215784799  0.5382954552141314  0.7725003712283794  1.0000
  O   O1        1.0  0.42017320860209445  0.6781980575001421  0.04276515890459287  1.0000
  O   O2        1.0  0.5798267895641536  0.321801942378984  0.9572348408208975  1.0000
  O   O3        1.0  0.6117342497557947  0.7364960853363496  0.2624568355301714  1.0000
  O   O4        1.0  0.38826575075257197  0.26350391454203104  0.7375431642000091  1.0000
  O   O5        1.0  0.529933700473909  0.5530620898073554  0.34421862878599996  1.0000
  O   O6        1.0  0.47006630002492356  0.4469379098879368  0.6557813716162608  1.0000
  Cl  Cl1       1.0  0.6501695225091721  0.8506419513020137  0.5904509590887915  1.0000
  Cl  Cl2       1.0  0.3498304779896603  0.14935804839327857  0.4095490413134692  1.0000
  I   I1        1.0  0.7915481137399618  0.09888286457247607  0.2002823306846872  1.0000
  I   I2        1.0  0.20845188676840498  0.9011171353059044  0.7997176690454932  1.0000
