data_image0
_chemical_formula_structural       H26C28N4O6I2
_chemical_formula_sum              "H26 C28 N4 O6 I2"
_cell_length_a       4.097792814714167
_cell_length_b       11.414892491443176
_cell_length_c       15.149716198089557
_cell_angle_alpha    78.94006073753258
_cell_angle_beta     87.83349835281436
_cell_angle_gamma    87.20799944173612

_space_group_name_H-M_alt    "P 1"
_space_group_IT_number       1

loop_
  _space_group_symop_operation_xyz
  'x, y, z'

loop_
  _atom_site_type_symbol
  _atom_site_label
  _atom_site_symmetry_multiplicity
  _atom_site_fract_x
  _atom_site_fract_y
  _atom_site_fract_z
  _atom_site_occupancy
  H   H1        1.0  0.5595148335895685  0.6761654781278275  0.24866105245957604  1.0000
  H   H2        1.0  0.4404851663597379  0.32383452161430226  0.7513389474433794  1.0000
  H   H3        1.0  0.17757119555354228  0.705269056561191  0.007701558867917123  1.0000
  H   H4        1.0  0.8224288043957643  0.2947309431809386  0.9922984410350383  1.0000
  H   H5        1.0  0.31805376531835383  0.48791844112801663  0.05273911775439136  1.0000
  H   H6        1.0  0.6819462346309527  0.5120815586141131  0.947260882148564  1.0000
  H   H7        1.0  0.9149818298686776  0.31088831315576443  0.2591770532426602  1.0000
  H   H8        1.0  0.08501817238646839  0.6891116874653299  0.7408229466716751  1.0000
  H   H9        1.0  0.30950819328755014  0.0800863257249536  0.16503547332749338  1.0000
  H   H10       1.0  0.6904918066617562  0.9199136740171762  0.8349645265754619  1.0000
  H   H11       1.0  0.9738488884054302  0.11780469274126162  0.23523126719073334  1.0000
  H   H12       1.0  0.026151111543876178  0.882195307000868  0.7647687327122221  1.0000
  H   H13       1.0  0.3808597061434692  0.1207282785907123  0.27074016809170975  1.0000
  H   H14       1.0  0.6191402935736114  0.8792717218531652  0.7292598324873878  1.0000
  H   H15       1.0  0.20782623897113134  0.4364087290775701  0.5168957697773123  1.0000
  H   H16       1.0  0.7921737608787424  0.5635912704900873  0.48310423079844045  1.0000
  H   H17       1.0  0.8837835359073496  0.35386749898618275  0.6537045808791475  1.0000
  H   H18       1.0  0.11621646390916394  0.6461325016321672  0.34629541902715283  1.0000
  H   H19       1.0  0.83507229718368  0.13296253528506102  0.7001228727415255  1.0000
  H   H20       1.0  0.16492770276562646  0.8670374644570685  0.2998771271614299  1.0000
  H   H21       1.0  0.09580165009240882  0.9970829133915732  0.6041680540439313  1.0000
  H   H22       1.0  0.9041983497574649  0.0029170861760840975  0.3958319465318215  1.0000
  H   H23       1.0  0.4002611279160115  0.08384761814757984  0.4628326815027398  1.0000
  H   H24       1.0  0.599738871900502  0.91615238247077  0.5371673184035604  1.0000
  H   H25       1.0  0.6388209603357657  0.45985244124317454  0.31676853472925764  1.0000
  H   H26       1.0  0.3611790396135407  0.5401475584989551  0.6832314651736978  1.0000
  C   C1        1.0  0.011468256679671803  0.4678432776016429  0.17310483106787242  1.0000
  C   C2        1.0  0.9885317432696346  0.5321567221404868  0.8268951688350831  1.0000
  C   C3        1.0  0.7271772344829303  0.6384950239605341  0.20273037673645952  1.0000
  C   C4        1.0  0.27282276533358335  0.3615049766578156  0.7972696231698407  1.0000
  C   C5        1.0  0.8530545844763044  0.7080084496547702  0.1244783354519356  1.0000
  C   C6        1.0  0.14694541547300188  0.29199155008735944  0.8755216644510198  1.0000
  C   C7        1.0  0.06988891781159672  0.6543131160713097  0.06917403550544342  1.0000
  C   C8        1.0  0.9301110820049167  0.34568688454704005  0.9308259644008569  1.0000
  C   C9        1.0  0.150941231400856  0.5331692159613204  0.09365184373957625  1.0000
  C   C10       1.0  0.8490587685484505  0.4668307837808094  0.9063481561633792  1.0000
  C   C11       1.0  0.2535841415437984  0.26641170675565  0.16522000136682685  1.0000
  C   C12       1.0  0.746415858405508  0.7335882929864798  0.8347799985361286  1.0000
  C   C13       1.0  0.2248399447182692  0.137975702909142  0.21174742607050445  1.0000
  C   C14       1.0  0.7751600552310373  0.8620242968329878  0.7882525738324511  1.0000
  C   C15       1.0  0.32245964463206434  0.264614017946493  0.48165176594065473  1.0000
  C   C16       1.0  0.6775403553172421  0.7353859817956366  0.5183482339623007  1.0000
  C   C17       1.0  0.17749785102934615  0.3406821686793473  0.5356529250178355  1.0000
  C   C18       1.0  0.8225021489199603  0.6593178310627823  0.46434707488511995  1.0000
  C   C19       1.0  0.9999816237489225  0.29328189971771845  0.6134237307340293  1.0000
  C   C20       1.0  1.837606759119007e-05  0.7067181009006313  0.386576269172271  1.0000
  C   C21       1.0  0.972064454622121  0.16978982292408162  0.6387942597935743  1.0000
  C   C22       1.0  0.027935545094959817  0.8302101775197959  0.36120574078552325  1.0000
  C   C23       1.0  0.11721676774874519  0.09357933319702787  0.5850977436475218  1.0000
  C   C24       1.0  0.8827832322005612  0.9064206665451018  0.41490225625543364  1.0000
  C   C25       1.0  0.2892773329287547  0.1411435417332811  0.5063926502420134  1.0000
  C   C26       1.0  0.7107226669211189  0.858856457834376  0.49360735033373937  1.0000
  C   C27       1.0  0.5121455041815505  0.31264116968386557  0.3984405735696377  1.0000
  C   C28       1.0  0.487854495767756  0.6873588300582641  0.6015594263333177  1.0000
  N   N1        1.0  0.8061208414129013  0.5217227390545733  0.2263935495433753  1.0000
  N   N2        1.0  0.19387915853640533  0.4782772606875563  0.7736064503595802  1.0000
  N   N3        1.0  0.06120784935455256  0.3462364705840858  0.20381981801693333  1.0000
  N   N4        1.0  0.938792150495321  0.6537635289835714  0.7961801825588194  1.0000
  O   O1        1.0  0.43935330743509987  0.296452423812621  0.09929178796602449  1.0000
  O   O2        1.0  0.5606466925142066  0.7035475759295086  0.900708211936931  1.0000
  O   O3        1.0  0.6623867417057359  0.2469451593363803  0.35233544466845224  1.0000
  O   O4        1.0  0.33761325824357064  0.7530548404057493  0.6476645552345032  1.0000
  O   O5        1.0  0.5066839213262718  0.43092429213442696  0.37742721895982984  1.0000
  O   O6        1.0  0.4933160786230346  0.5690757076077028  0.6225727809431256  1.0000
  I   I1        1.0  0.7094426773659179  0.8889861998435942  0.08922051254986724  1.0000
  I   I2        1.0  0.29055732258338857  0.11101379989853537  0.9107794873530881  1.0000
