data_image0
_chemical_formula_structural       H60C60N8O12Cl4
_chemical_formula_sum              "H60 C60 N8 O12 Cl4"
_cell_length_a       15.206046710334506
_cell_length_b       4.378400661654334
_cell_length_c       21.536065014923363
_cell_angle_alpha    90.0
_cell_angle_beta     105.77255173041931
_cell_angle_gamma    90.0

_space_group_name_H-M_alt    "P 1"
_space_group_IT_number       1

loop_
  _space_group_symop_operation_xyz
  'x, y, z'

loop_
  _atom_site_type_symbol
  _atom_site_label
  _atom_site_symmetry_multiplicity
  _atom_site_fract_x
  _atom_site_fract_y
  _atom_site_fract_z
  _atom_site_occupancy
  H   H1        1.0  0.29091527915336735  0.33049054936266575  0.49773304698943266  1.0000
  H   H2        1.0  0.20908472051301336  0.8304905491737459  0.002266953131023453  1.0000
  H   H3        1.0  0.709084720836278  0.6695094502594945  0.5022669532495475  1.0000
  H   H4        1.0  0.790915279288249  0.16950945044841437  0.9977330466254559  1.0000
  H   H5        1.0  0.49264896995812113  0.749860148422205  0.5237877288979659  1.0000
  H   H6        1.0  0.007351029938610233  0.24986014861112502  0.9762122710079432  1.0000
  H   H7        1.0  0.5073510300315243  0.25013985348389406  0.47621227134101424  1.0000
  H   H8        1.0  0.9926489698626523  0.7501398532949741  0.02378772874853629  1.0000
  H   H9        1.0  0.6204926968067755  0.10400821331594073  0.5730208445284288  1.0000
  H   H10       1.0  0.8795073033177516  0.6040082154109598  0.9269791553465746  1.0000
  H   H11       1.0  0.3795073029944868  0.8959917863062195  0.42697915522805063  1.0000
  H   H12       1.0  0.12049269648351084  0.3959917864951394  0.07302084440990488  1.0000
  H   H13       1.0  0.4082139127354375  0.7587123305304903  0.6985133081101849  1.0000
  H   H14       1.0  0.09178608781817793  0.2587123307194101  0.8014866917937921  1.0000
  H   H15       1.0  0.591786087722709  0.24128766909167  0.30148669164436254  1.0000
  H   H16       1.0  0.9082139128283516  0.7412876689027501  0.1985133084432559  1.0000
  H   H17       1.0  0.5388286507304889  0.1031962867074113  0.7497026606515553  1.0000
  H   H18       1.0  0.9611713493940384  0.6031962888024304  0.7502973392234481  1.0000
  H   H19       1.0  0.46117134972765755  0.8968037129147489  0.25029733910299207  1.0000
  H   H20       1.0  0.03882865040722414  0.3968037131036688  0.24970266053303133  1.0000
  H   H21       1.0  0.22457283743393178  0.17471885492337666  0.5753559846677085  1.0000
  H   H22       1.0  0.2754271624627996  0.6747188547344568  0.9246440152382005  1.0000
  H   H23       1.0  0.7754271625557136  0.8252811446987836  0.42464401557127157  1.0000
  H   H24       1.0  0.7245728373384628  0.32528114488770343  0.07535598451827898  1.0000
  H   H25       1.0  0.042024055387232  0.6594199510533372  0.47685253185711246  1.0000
  H   H26       1.0  0.4579759449360328  0.15941995124225705  0.023147468261411563  1.0000
  H   H27       1.0  0.9579759446024135  0.34058004856882307  0.5231474683818677  1.0000
  H   H28       1.0  0.5420240555221136  0.8405800506638421  0.9768525314931357  1.0000
  H   H29       1.0  0.24265214882775146  0.2527834169433484  0.37783030026544545  1.0000
  H   H30       1.0  0.25734785083862927  0.7527834167544285  0.12216969985501068  1.0000
  H   H31       1.0  0.7573478511618941  0.7472165849627508  0.6221696999735347  1.0000
  H   H32       1.0  0.7426521491510162  0.24721658286773174  0.8778303003839695  1.0000
  H   H33       1.0  0.019299954743086125  0.6176034376393224  0.359701767036463  1.0000
  H   H34       1.0  0.4807000449232946  0.1176034378282422  0.14029823308399308  1.0000
  H   H35       1.0  0.9807000452465594  0.3823965619828379  0.640298233202517  1.0000
  H   H36       1.0  0.5192999548779678  0.882396564077857  0.8597017666724863  1.0000
  H   H37       1.0  0.12328876558387589  0.919670373080603  0.3067977122264984  1.0000
  H   H38       1.0  0.37671123408250484  0.41967037098558385  0.1932022878939577  1.0000
  H   H39       1.0  0.8767112344057696  0.08032962882549628  0.6932022880124816  1.0000
  H   H40       1.0  0.6232887659071407  0.5803296286365764  0.8067977123450225  1.0000
  H   H41       1.0  0.2534866543045765  0.8903090583142593  0.6820765831098565  1.0000
  H   H42       1.0  0.24651334578053793  0.3903090585031792  0.8179234172785531  1.0000
  H   H43       1.0  0.746513345685069  0.1096909413079009  0.31792341712912353  1.0000
  H   H44       1.0  0.7534866542091075  0.609690941118981  0.18207658296042697  1.0000
  H   H45       1.0  0.1805019382089744  0.208513146819928  0.6688698411968866  1.0000
  H   H46       1.0  0.31949806168775696  0.7085131466310082  0.8311301587090225  1.0000
  H   H47       1.0  0.8194980617806712  0.7914868528022323  0.33113015904209353  1.0000
  H   H48       1.0  0.6805019381135053  0.2914868529911521  0.16886984104745698  1.0000
  H   H49       1.0  0.05903311507784381  0.895905729768886  0.7006110311282442  1.0000
  H   H50       1.0  0.4409668848188875  0.39590572995780604  0.7993889687776647  1.0000
  H   H51       1.0  0.9409668847234185  0.10409426985327408  0.2993889686282353  1.0000
  H   H52       1.0  0.5590331149823748  0.6040942696643542  0.20061103097881455  1.0000
  H   H53       1.0  0.16211118361162294  0.8946904435465445  0.7644650227659092  1.0000
  H   H54       1.0  0.3378888169419925  0.3946904437354644  0.7355349771380677  1.0000
  H   H55       1.0  0.8378888170349066  0.1053095560756157  0.2355349774711388  1.0000
  H   H56       1.0  0.6621111835161538  0.6053095558866958  0.2644650226164796  1.0000
  H   H57       1.0  0.13206689453037251  0.5739313836688774  0.7132802960558584  1.0000
  H   H58       1.0  0.36793310536635887  0.07393138157385826  0.7867197038500506  1.0000
  H   H59       1.0  0.86793310527089  0.42606861823722186  0.2867197037006211  1.0000
  H   H60       1.0  0.6320668946232866  0.926068618048302  0.21328029638892942  1.0000
  C   C1        1.0  0.5020879534454762  0.8306661406874996  0.5728753294072665  1.0000
  C   C2        1.0  0.9979120468674342  0.33066614087641943  0.9271246709502377  1.0000
  C   C3        1.0  0.49791204720105336  0.16933385893466069  0.42712467082978145  1.0000
  C   C4        1.0  0.0020879531222113877  0.6693338587457408  0.0728753292887425  1.0000
  C   C5        1.0  0.4415250788294375  0.7359641085890184  0.6077420872112674  1.0000
  C   C6        1.0  0.05847492106729386  0.23596410877793822  0.8922579126946416  1.0000
  C   C7        1.0  0.5584749209718249  0.2640358910331419  0.392257912545212  1.0000
  C   C8        1.0  0.9415250793908525  0.764035890844222  0.10774208705990578  1.0000
  C   C9        1.0  0.5744631738573387  0.025458743640396474  0.600517379968347  1.0000
  C   C10       1.0  0.9255368262671885  0.5254587434514766  0.8994826199066566  1.0000
  C   C11       1.0  0.4255368266008079  0.9745412559817638  0.39948261978620037  1.0000
  C   C12       1.0  0.07446317353407383  0.4745412561706836  0.10051737984982298  1.0000
  C   C13       1.0  0.5867211596435715  0.12067373473316746  0.6641443428441558  1.0000
  C   C14       1.0  0.9132788404809558  0.6206737345442476  0.8358556570308476  1.0000
  C   C15       1.0  0.41327884034607393  0.8793262648889927  0.33585565739482426  1.0000
  C   C16       1.0  0.08672115932030681  0.3793262650779126  0.1641443427256319  1.0000
  C   C17       1.0  0.3622857958473403  0.5345427156763877  0.5786646200404512  1.0000
  C   C18       1.0  0.13771420404939114  0.0345427158653075  0.921335379865458  1.0000
  C   C19       1.0  0.6377142039539221  0.46545728394577257  0.4213353797160283  1.0000
  C   C20       1.0  0.8622857959402543  0.9654572837568527  0.0786646203735222  1.0000
  C   C21       1.0  0.45535376452812737  0.8342789667448626  0.6715988473975083  1.0000
  C   C22       1.0  0.044646235556987046  0.33427896693378234  0.8284011529909011  1.0000
  C   C23       1.0  0.5446462354615182  0.16572103287729772  0.3284011528414717  1.0000
  C   C24       1.0  0.9553537644326584  0.6657210326883779  0.17159884724807878  1.0000
  C   C25       1.0  0.5279911182198022  0.025550914282415224  0.7002121871131942  1.0000
  C   C26       1.0  0.9720088812478409  0.5255509140934953  0.7997878127637413  1.0000
  C   C27       1.0  0.4720088815814602  0.974449085339745  0.2997878126432853  1.0000
  C   C28       1.0  0.02799111855342144  0.4744490855286648  0.20021218699273807  1.0000
  C   C29       1.0  0.15605659850697684  0.9710303552698605  0.4899711583172153  1.0000
  C   C30       1.0  0.34394340181628796  0.47103035545878036  0.010028841801308646  1.0000
  C   C31       1.0  0.8439434014826686  0.028969644352299758  0.5100288419217647  1.0000
  C   C32       1.0  0.6560565979849745  0.5289696441633799  0.9899711579551708  1.0000
  C   C33       1.0  0.14081735300315246  0.8526031006466891  0.5992902500320043  1.0000
  C   C34       1.0  0.3591826468935789  0.3526031008356089  0.9007097498739047  1.0000
  C   C35       1.0  0.85918264679811  0.14739689897547117  0.4007097497244752  1.0000
  C   C36       1.0  0.6408173529076835  0.6473968987865513  0.09929024988257469  1.0000
  C   C37       1.0  0.08552332324814581  0.7847825234663901  0.45353848113168466  1.0000
  C   C38       1.0  0.4144766768867359  0.2847825236553099  0.046461518504338696  1.0000
  C   C39       1.0  0.9144766772100006  0.21521747615577017  0.5464615186228627  1.0000
  C   C40       1.0  0.5855233229145265  0.7152174759668503  0.9535384812521406  1.0000
  C   C41       1.0  0.19724769646207463  0.1139583123056342  0.3976912245900094  1.0000
  C   C42       1.0  0.30275230367280703  0.6139583121167143  0.10230877504601404  1.0000
  C   C43       1.0  0.8027523033391878  0.886041687316526  0.6023087751664702  1.0000
  C   C44       1.0  0.6972476961284553  0.38604168750544593  0.8976912247104654  1.0000
  C   C45       1.0  0.07356941041968525  0.7650417467126833  0.38750271689066096  1.0000
  C   C46       1.0  0.42643058990357957  0.2650417469016032  0.11249728322786304  1.0000
  C   C47       1.0  0.9264305895699603  0.23495825290947692  0.6124972833483192  1.0000
  C   C48       1.0  0.5735694105545669  0.734958252720557  0.8875027165266843  1.0000
  C   C49       1.0  0.13009955263460288  0.9313012661704004  0.3583930372758819  1.0000
  C   C50       1.0  0.36990044768866187  0.4313012663593203  0.1416069628426421  1.0000
  C   C51       1.0  0.8699004473550426  0.06869873573569883  0.6416069629630982  1.0000
  C   C52       1.0  0.6300995521126006  0.568698735546779  0.8583930369138375  1.0000
  C   C53       1.0  0.180936503854431  0.9573752892719922  0.6683300294438448  1.0000
  C   C54       1.0  0.3190634960423004  0.45737528946091205  0.8316699704620643  1.0000
  C   C55       1.0  0.8190634959468315  0.04262471035016802  0.33166997031263473  1.0000
  C   C56       1.0  0.6809365039473452  0.5426247101612481  0.1683300297769158  1.0000
  C   C57       1.0  0.1309638538171582  0.8244246104777735  0.7143973148969814  1.0000
  C   C58       1.0  0.36903614607957314  0.32442461066669337  0.7856026850089276  1.0000
  C   C59       1.0  0.8690361459841042  0.17557538914438672  0.285602684859498  1.0000
  C   C60       1.0  0.6309638537216893  0.6755753889554669  0.2143973147475518  1.0000
  N   N1        1.0  0.1756600064721008  0.009869357178397828  0.556029179736354  1.0000
  N   N2        1.0  0.32433999342463055  0.5098693569894779  0.9439708201695549  1.0000
  N   N3        1.0  0.8243399941744288  0.9901306424437624  0.4439708205006939  1.0000
  N   N4        1.0  0.6756600063766319  0.49013064263268236  0.05602917958692446  1.0000
  N   N5        1.0  0.21085643443006688  0.13242721368055912  0.4618545628269811  1.0000
  N   N6        1.0  0.2891435658931979  0.6324272134916393  0.03814543729154281  1.0000
  N   N7        1.0  0.7891435662164626  0.8675727859416011  0.5381454374100668  1.0000
  N   N8        1.0  0.7108564339080646  0.36757278613052097  0.9618545624649366  1.0000
  O   O1        1.0  0.35004868920768695  0.472893704802629  0.5168083868986328  1.0000
  O   O2        1.0  0.14995131134592848  0.9728937046137092  0.9831916130053441  1.0000
  O   O3        1.0  0.6499513114388425  0.5271062948195312  0.48319161333841504  1.0000
  O   O4        1.0  0.850048689112218  0.02710629500845113  0.016808386749203274  1.0000
  O   O5        1.0  0.3121066691653742  0.43696096082653174  0.6113123012538042  1.0000
  O   O6        1.0  0.1878933307313571  0.9369609606376119  0.8886876986521048  1.0000
  O   O7        1.0  0.6878933306358881  0.5630390410795675  0.3886876985026752  1.0000
  O   O8        1.0  0.8121066690699054  0.06303903898454838  0.11131230110437466  1.0000
  O   O9        1.0  0.08421994282439711  0.6442272642390459  0.5845639208755998  1.0000
  O   O10       1.0  0.4157800572607174  0.1442272644279658  0.91543607951281  1.0000
  O   O11       1.0  0.9157800571652484  0.3557727376670533  0.41543607936338034  1.0000
  O   O12       1.0  0.5842199427289281  0.8557727374781334  0.08456392072617021  1.0000
  Cl  Cl1       1.0  0.6770192980619596  0.35967735063446055  0.6997744550059938  1.0000
  Cl  Cl2       1.0  0.8229807020625677  0.8596773504455406  0.8002255448690098  1.0000
  Cl  Cl3       1.0  0.3229807019276859  0.6403226489876996  0.3002255452329864  1.0000
  Cl  Cl4       1.0  0.17701929773869485  0.14032264917661955  0.19977445488746975  1.0000
