data_image0
_chemical_formula_structural       H38C34N4O6I2
_chemical_formula_sum              "H38 C34 N4 O6 I2"
_cell_length_a       4.442311789416119
_cell_length_b       12.775708911445124
_cell_length_c       15.019702307659704
_cell_angle_alpha    96.68885023833508
_cell_angle_beta     93.37803660730215
_cell_angle_gamma    93.33120798671487

_space_group_name_H-M_alt    "P 1"
_space_group_IT_number       1

loop_
  _space_group_symop_operation_xyz
  'x, y, z'

loop_
  _atom_site_type_symbol
  _atom_site_label
  _atom_site_symmetry_multiplicity
  _atom_site_fract_x
  _atom_site_fract_y
  _atom_site_fract_z
  _atom_site_occupancy
  H   H1        1.0  0.2723588070004108  0.4106909091699529  0.6905102427064151  1.0000
  H   H2        1.0  0.7276411935665349  0.5893090907358313  0.30948975722838384  1.0000
  H   H3        1.0  0.05539162226123673  0.09989950666370442  0.5407915219624081  1.0000
  H   H4        1.0  0.9446083760556662  0.9001004932408422  0.45920847797817815  1.0000
  H   H5        1.0  0.45117153443892394  0.296885295670475  0.40785334773246823  1.0000
  H   H6        1.0  0.5488284640018192  0.7031147050173877  0.5921466522030351  1.0000
  H   H7        1.0  0.6617564037157903  0.44784743526272097  0.5151761427675209  1.0000
  H   H8        1.0  0.3382435968511554  0.5521525646430631  0.4848238571672781  1.0000
  H   H9        1.0  0.40461575404223415  0.5846339056681573  0.747235181854843  1.0000
  H   H10       1.0  0.5953842442746687  0.41536609423638926  0.2527648180857433  1.0000
  H   H11       1.0  0.11172697381373735  0.5497514766021963  0.8139332594638894  1.0000
  H   H12       1.0  0.8882730267532082  0.4502485233035878  0.18606674047090951  1.0000
  H   H13       1.0  0.15183637830628535  0.748790464175921  0.7151672658465995  1.0000
  H   H14       1.0  0.8481636222606602  0.25120953572986304  0.2848327340881995  1.0000
  H   H15       1.0  0.20452769896822207  0.7454163450320435  0.8331644630292525  1.0000
  H   H16       1.0  0.7954723015987237  0.2545836548737407  0.16683553690554653  1.0000
  H   H17       1.0  0.8419791182431376  0.7131394476521944  0.7761529236335892  1.0000
  H   H18       1.0  0.15802088232380798  0.28686055225358964  0.2238470763012096  1.0000
  H   H19       1.0  0.31277609478861645  0.23155851120888213  0.6599964230343418  1.0000
  H   H20       1.0  0.6872239057783293  0.768441488696902  0.3400035769004572  1.0000
  H   H21       1.0  0.9260751437185806  0.39874874907882013  0.8957688215973932  1.0000
  H   H22       1.0  0.07392485697220523  0.6012512516102799  0.10423117833232291  1.0000
  H   H23       1.0  0.782816363597675  0.0786031858279052  0.7723512887778976  1.0000
  H   H24       1.0  0.21718363471922797  0.9213968140766413  0.22764871116268867  1.0000
  H   H25       1.0  0.4050778112761087  0.15354865804478907  0.004355476488381421  1.0000
  H   H26       1.0  0.5949221894146772  0.8464513426443111  0.9956445234413347  1.0000
  H   H27       1.0  0.12823286405845227  0.9547899217804438  0.9453396006365079  1.0000
  H   H28       1.0  0.8717671342584505  0.045210078124102826  0.05466039930407822  1.0000
  H   H29       1.0  0.4151677884588974  0.9801538466962059  0.8721796292600152  1.0000
  H   H30       1.0  0.5848322121080483  0.01984615320957829  0.12782037067478383  1.0000
  H   H31       1.0  0.042120239881828815  0.9406866209085176  0.8271386900638844  1.0000
  H   H32       1.0  0.9578797606851167  0.05931337899726649  0.17286130987091455  1.0000
  H   H33       1.0  0.5850465365965755  0.3720968924301766  0.020810115689598195  1.0000
  H   H34       1.0  0.41495346409421024  0.6279031082589235  0.9791898842401179  1.0000
  H   H35       1.0  0.3188931681011358  0.3406795025720191  0.09800842104643763  1.0000
  H   H36       1.0  0.681106830215767  0.6593204973325274  0.9019915788941485  1.0000
  H   H37       1.0  0.2541835763904961  0.4429567591135145  0.029755988315677537  1.0000
  H   H38       1.0  0.7458164241764496  0.5570432407922695  0.9702440116191214  1.0000
  C   C1        1.0  0.9644101419495215  0.3542976994183838  0.5854746666410673  1.0000
  C   C2        1.0  0.035589858617424155  0.6457023004874003  0.4145253332937316  1.0000
  C   C3        1.0  0.9898049085854217  0.5305037201312429  0.6738127596591516  1.0000
  C   C4        1.0  0.010195089731481227  0.46949627977330377  0.3261872402814346  1.0000
  C   C5        1.0  0.737520729360816  0.1850145605588282  0.46500113290139133  1.0000
  C   C6        1.0  0.26247927120612946  0.8149854393469559  0.5349988670334077  1.0000
  C   C7        1.0  0.9600593914427524  0.17519516134836624  0.5321701739298745  1.0000
  C   C8        1.0  0.039940609124193074  0.8248048385574178  0.46782982600492445  1.0000
  C   C9        1.0  0.6262539538685649  0.28421056282736784  0.4586977580654187  1.0000
  C   C10       1.0  0.3737460466983808  0.7157894370784162  0.5413022418693803  1.0000
  C   C11       1.0  0.7412254562595153  0.36982238831822356  0.5189379880473234  1.0000
  C   C12       1.0  0.2587745443074304  0.6301776115875606  0.48106201188747555  1.0000
  C   C13       1.0  0.1621902844535338  0.5912208646082106  0.755667313237722  1.0000
  C   C14       1.0  0.8378097162834668  0.40877913539854027  0.2443326873688641  1.0000
  C   C15       1.0  0.08573281959192713  0.7061353705477303  0.7710363431328985  1.0000
  C   C16       1.0  0.9142671787249758  0.29386462935681634  0.22896365680768768  1.0000
  C   C17       1.0  0.976476386987361  0.3161540645678481  0.8953103846441224  1.0000
  C   C18       1.0  0.02352361374963947  0.6838459354389027  0.1046896159624636  1.0000
  C   C19       1.0  0.8303754490487768  0.24176519977807068  0.8286454049129651  1.0000
  C   C20       1.0  0.16962455168822368  0.7582348002286801  0.1713545956936209  1.0000
  C   C21       1.0  0.10117130011734601  0.10227569528427848  0.8881209973300411  1.0000
  C   C22       1.0  0.8988287005734399  0.8977243054048216  0.11187900259967501  1.0000
  C   C23       1.0  0.607953385848328  0.27790186610194734  0.7630790626034378  1.0000
  C   C24       1.0  0.39204661246857486  0.7220981338025994  0.23692093733714836  1.0000
  C   C25       1.0  0.894585655546927  0.1355143392867876  0.8252653046629517  1.0000
  C   C26       1.0  0.10541434502001856  0.8644856606189963  0.17473469527184735  1.0000
  C   C27       1.0  0.18221238931142428  0.28525512074373216  0.9595621641028543  1.0000
  C   C28       1.0  0.8177876112555214  0.7147448791620519  0.040437835831944643  1.0000
  C   C29       1.0  0.24110695187212314  0.17816136059898793  0.9550352314853316  1.0000
  C   C30       1.0  0.7588930486948225  0.8218386393067961  0.04496476844946728  1.0000
  C   C31       1.0  0.17442560320222214  0.988443154327617  0.8830027878520897  1.0000
  C   C32       1.0  0.8255743973647235  0.011556845578166944  0.11699721208270916  1.0000
  C   C33       1.0  0.34198377769932736  0.3646401802012198  0.03081364157585317  1.0000
  C   C34       1.0  0.6580162228676183  0.6353598197045643  0.9691863583589458  1.0000
  N   N1        1.0  0.06912809100834552  0.2578532212050334  0.5906459204253861  1.0000
  N   N2        1.0  0.9308719095586  0.7421467787007506  0.4093540795094129  1.0000
  N   N3        1.0  0.09492527402330632  0.4328356262227992  0.649720883402261  1.0000
  N   N4        1.0  0.9050747265436393  0.5671643736829849  0.3502791165325379  1.0000
  O   O1        1.0  0.7735496883667087  0.5656795552966735  0.6337540656832168  1.0000
  O   O2        1.0  0.22645031220023687  0.4343204446091106  0.36624593425158214  1.0000
  O   O3        1.0  0.475648490760195  0.20187065364771956  0.7038346032147672  1.0000
  O   O4        1.0  0.5243515098067506  0.7981293462580646  0.2961653967200317  1.0000
  O   O5        1.0  0.5535428886947892  0.37259856350824727  0.7647796557939317  1.0000
  O   O6        1.0  0.4464571118721563  0.6274014363975368  0.23522034414086726  1.0000
  I   I1        1.0  0.5746327948285207  0.05189567652905105  0.37635157250586554  1.0000
  I   I2        1.0  0.42536720573842496  0.9481043233767331  0.6236484274289334  1.0000
