data_image0
_chemical_formula_structural       H112C68N12O24F8Cl4
_chemical_formula_sum              "H112 C68 N12 O24 F8 Cl4"
_cell_length_a       13.847009713896233
_cell_length_b       11.517479284542508
_cell_length_c       13.928850939040275
_cell_angle_alpha    90.0
_cell_angle_beta     111.1950143268029
_cell_angle_gamma    90.0

_space_group_name_H-M_alt    "P 1"
_space_group_IT_number       1

loop_
  _space_group_symop_operation_xyz
  'x, y, z'

loop_
  _atom_site_type_symbol
  _atom_site_label
  _atom_site_symmetry_multiplicity
  _atom_site_fract_x
  _atom_site_fract_y
  _atom_site_fract_z
  _atom_site_occupancy
  H   H1        1.0  0.05835666755815591  0.4691834729194954  0.12087066920137711  1.0000
  H   H2        1.0  0.9416433327498859  0.4691834729194954  0.3791293310698795  1.0000
  H   H3        1.0  0.5583566673439133  0.9691834727222949  0.12087066887728311  1.0000
  H   H4        1.0  0.44164333296412844  0.9691834727222949  0.3791293313939735  1.0000
  H   H5        1.0  0.9416433324841325  0.5308165275543488  0.8791293312194078  1.0000
  H   H6        1.0  0.05835666701226111  0.5308165275543488  0.6208706685808832  1.0000
  H   H7        1.0  0.44164333241823356  0.030816527751549437  0.8791293307734795  1.0000
  H   H8        1.0  0.5583566670781599  0.030816527751549437  0.6208706690268114  1.0000
  H   H9        1.0  0.09866353777129515  0.5903294663724737  0.07296473674872446  1.0000
  H   H10       1.0  0.9013364625367466  0.5903294663724737  0.4270352635225321  1.0000
  H   H11       1.0  0.5986635375570526  0.0903294665696744  0.07296473642463046  1.0000
  H   H12       1.0  0.4013364624708478  0.0903294665696744  0.4270352630766039  1.0000
  H   H13       1.0  0.9013364622709933  0.40967053323312497  0.9270352636720605  1.0000
  H   H14       1.0  0.09866353750554167  0.40967053323312497  0.5729647368982528  1.0000
  H   H15       1.0  0.4013364622050944  0.9096705330359243  0.9270352632261322  1.0000
  H   H16       1.0  0.5986635372912991  0.9096705330359243  0.5729647365741588  1.0000
  H   H17       1.0  0.33074468862384987  0.36926215927367606  0.052074200751780514  1.0000
  H   H18       1.0  0.6692553114040506  0.36926215927367606  0.4479257987494539  1.0000
  H   H19       1.0  0.8307446886897486  0.8692621599447209  0.05207420119770877  1.0000
  H   H20       1.0  0.1692553116182931  0.8692621599447209  0.44792579907354774  1.0000
  H   H21       1.0  0.6692553118604362  0.6307378403319227  0.9479257988988761  1.0000
  H   H22       1.0  0.33074468835809645  0.6307378403319227  0.5520742009013089  1.0000
  H   H23       1.0  0.16925531135253957  0.13073784052912332  0.9479257992230761  1.0000
  H   H24       1.0  0.8307446884239952  0.13073784052912332  0.5520742013472371  1.0000
  H   H25       1.0  0.2869975340470715  0.4770442797647492  0.11898969130837236  1.0000
  H   H26       1.0  0.7130024662609703  0.4770442797647492  0.38101030896288424  1.0000
  H   H27       1.0  0.786997533832829  0.9770442795675486  0.11898969098427838  1.0000
  H   H28       1.0  0.21300246647521284  0.9770442795675486  0.3810103092869782  1.0000
  H   H29       1.0  0.7130024659952169  0.522955720709095  0.8810103091124125  1.0000
  H   H30       1.0  0.28699753378131804  0.522955720709095  0.6189896914579007  1.0000
  H   H31       1.0  0.213002465929318  0.022955720038050152  0.8810103086664843  1.0000
  H   H32       1.0  0.7869975342892145  0.022955720038050152  0.6189896911337007  1.0000
  H   H33       1.0  0.3113877841462808  0.5375016656907234  0.9494018107498717  1.0000
  H   H34       1.0  0.6886122153501127  0.5375016656907234  0.5505981890504192  1.0000
  H   H35       1.0  0.8113877849343185  0.03750166588792408  0.949401811195694  1.0000
  H   H36       1.0  0.18861221556435523  0.03750166588792408  0.5505981893745132  1.0000
  H   H37       1.0  0.6886122156158662  0.4624983347831208  0.05059818890089092  1.0000
  H   H38       1.0  0.3113877844120343  0.4624983347831208  0.44940181060034345  1.0000
  H   H39       1.0  0.18861221583010873  0.9624983345859203  0.05059818922498492  1.0000
  H   H40       1.0  0.811387784477933  0.9624983345859203  0.44940181104627164  1.0000
  H   H41       1.0  0.19536241212388608  0.45771225714945135  0.8843148953942518  1.0000
  H   H42       1.0  0.8046375880946464  0.45771225714945135  0.6156851044059332  1.0000
  H   H43       1.0  0.6953624119096434  0.9577122578204963  0.8843148950701578  1.0000
  H   H44       1.0  0.304637588308889  0.9577122578204963  0.6156851047300271  1.0000
  H   H45       1.0  0.8046375886405412  0.5422877424561473  0.11568510502642709  1.0000
  H   H46       1.0  0.1953624116675005  0.5422877424561473  0.3843148952448294  1.0000
  H   H47       1.0  0.30463758857464246  0.042287742653347976  0.11568510458049883  1.0000
  H   H48       1.0  0.695362411453258  0.042287742653347976  0.3843148949207355  1.0000
  H   H49       1.0  0.11102292525088799  0.6221924930759403  0.8094081229513622  1.0000
  H   H50       1.0  0.8889770742455056  0.6221924930759403  0.6905918768489289  1.0000
  H   H51       1.0  0.6110229253167868  0.12219249327314088  0.8094081233972904  1.0000
  H   H52       1.0  0.3889770741796067  0.12219249327314088  0.6905918764030005  1.0000
  H   H53       1.0  0.8889770745112591  0.37780750739790403  0.19059187669940048  1.0000
  H   H54       1.0  0.11102292579678279  0.37780750739790403  0.30940812357185604  1.0000
  H   H55       1.0  0.3889770747255016  0.8778075072007033  0.19059187702349445  1.0000
  H   H56       1.0  0.6110229255825403  0.8778075072007033  0.3094081232477622  1.0000
  H   H57       1.0  0.21561215642284612  0.7200208878282696  0.8750856162004944  1.0000
  H   H58       1.0  0.7843878437956863  0.7200208878282696  0.6249143835996905  1.0000
  H   H59       1.0  0.7156121562086035  0.2200208880254702  0.8750856158764004  1.0000
  H   H60       1.0  0.28438784400992895  0.2200208880254702  0.6249143839237844  1.0000
  H   H61       1.0  0.7843878433393008  0.27997911177732915  0.12491438345026816  1.0000
  H   H62       1.0  0.21561215596646058  0.27997911177732915  0.3750856160510722  1.0000
  H   H63       1.0  0.2843878435535434  0.779979112448374  0.12491438377436215  1.0000
  H   H64       1.0  0.7156121560323594  0.779979112448374  0.3750856164970004  1.0000
  H   H65       1.0  0.1007045950247038  0.8057288527060383  0.9644734018972512  1.0000
  H   H66       1.0  0.8992954051938287  0.8057288527060383  0.5355265979029338  1.0000
  H   H67       1.0  0.6007045950906026  0.3057288529032391  0.9644734023431794  1.0000
  H   H68       1.0  0.39929540540807135  0.3057288529032391  0.5355265982270279  1.0000
  H   H69       1.0  0.8992954054595822  0.19427114689956027  0.03552659775340548  1.0000
  H   H70       1.0  0.10070459456831825  0.19427114689956027  0.46447340174782886  1.0000
  H   H71       1.0  0.39929540495168575  0.6942711475706052  0.03552659807760549  1.0000
  H   H72       1.0  0.600704594634217  0.6942711475706052  0.4644734021937571  1.0000
  H   H73       1.0  0.06102958750969286  0.8299414336979803  0.8292031893873053  1.0000
  H   H74       1.0  0.9389704127088396  0.8299414336979803  0.6707968104128796  1.0000
  H   H75       1.0  0.5610295875755916  0.3299414338951811  0.8292031898332337  1.0000
  H   H76       1.0  0.43897041264294084  0.3299414338951811  0.6707968099669513  1.0000
  H   H77       1.0  0.9389704122524541  0.17005856590761825  0.17079681026345733  1.0000
  H   H78       1.0  0.06102958733344867  0.17005856590761825  0.32920319000790527  1.0000
  H   H79       1.0  0.43897041246669666  0.6700585657104176  0.1707968105875513  1.0000
  H   H80       1.0  0.561029587841345  0.6700585657104176  0.3292031896837052  1.0000
  H   H81       1.0  0.8797395286163229  0.8529541419001753  0.8237103671206106  1.0000
  H   H82       1.0  0.12026047116021207  0.8529541419001753  0.6762896334497027  1.0000
  H   H83       1.0  0.37973952855042403  0.35295414209737586  0.8237103666746823  1.0000
  H   H84       1.0  0.6202604709459695  0.35295414209737586  0.6762896331256086  1.0000
  H   H85       1.0  0.12026047142596549  0.14704585857366897  0.1762896333001743  1.0000
  H   H86       1.0  0.8797395288820763  0.14704585857366897  0.3237103669710823  1.0000
  H   H87       1.0  0.620260471211723  0.6470458583764683  0.17628963297608033  1.0000
  H   H88       1.0  0.37973952881617745  0.6470458583764683  0.32371036652515395  1.0000
  H   H89       1.0  0.9294157105926459  0.8287901922090728  0.9598976337936623  1.0000
  H   H90       1.0  0.070584289906028  0.8287901922090728  0.540102366776545  1.0000
  H   H91       1.0  0.4294157098046081  0.32879019240627344  0.95989763334784  1.0000
  H   H92       1.0  0.5705842896917855  0.32879019240627344  0.540102366452451  1.0000
  H   H93       1.0  0.07058429017178149  0.17120980739652591  0.04010236662701672  1.0000
  H   H94       1.0  0.9294157101362605  0.17120980739652591  0.45989763364423986  1.0000
  H   H95       1.0  0.570584289957539  0.6712098071993252  0.0401023663029227  1.0000
  H   H96       1.0  0.4294157100703615  0.6712098071993252  0.45989763319831156  1.0000
  H   H97       1.0  0.7382619986030465  0.7774516331900376  0.8659037536840704  1.0000
  H   H98       1.0  0.261738001615486  0.7774516331900376  0.6340962461161147  1.0000
  H   H99       1.0  0.23826199881728916  0.27745163251899274  0.8659037540081643  1.0000
  H   H100      1.0  0.7617380014012435  0.27745163251899274  0.6340962457920207  1.0000
  H   H101      1.0  0.2617380011591004  0.2225483672838066  0.1340962459666923  1.0000
  H   H102      1.0  0.7382619991489414  0.2225483672838066  0.36590375430456423  1.0000
  H   H103      1.0  0.7617380012249992  0.7225483670866059  0.13409624641262055  1.0000
  H   H104      1.0  0.23826199908304257  0.7225483670866059  0.365903753858636  1.0000
  H   H105      1.0  0.7794281480014895  0.6635991662044991  0.8028408609866337  1.0000
  H   H106      1.0  0.220571852217043  0.6635991662044991  0.6971591388135514  1.0000
  H   H107      1.0  0.2794281482157321  0.16359916640169977  0.8028408613107276  1.0000
  H   H108      1.0  0.7205718522829417  0.16359916640169977  0.6971591392594796  1.0000
  H   H109      1.0  0.22057185204079877  0.33640083340109955  0.19715913943415125  1.0000
  H   H110      1.0  0.7794281482672429  0.33640083340109955  0.3028408608371053  1.0000
  H   H111      1.0  0.7205718518265561  0.8364008340721445  0.19715913911005722  1.0000
  H   H112      1.0  0.27942814775934655  0.8364008340721445  0.3028408611613054  1.0000
  C   C1        1.0  0.040631734205339866  0.6188739579124956  0.188977086037078  1.0000
  C   C2        1.0  0.959368266102702  0.6188739579124956  0.3110229142341786  1.0000
  C   C3        1.0  0.5406317339910973  0.11887395724145067  0.18897708571298397  1.0000
  C   C4        1.0  0.45936826603680314  0.11887395724145067  0.3110229137882503  1.0000
  C   C5        1.0  0.959368265556807  0.3811260425613487  0.8110229136136846  1.0000
  C   C6        1.0  0.04063173393958635  0.3811260425613487  0.6889770861866062  1.0000
  C   C7        1.0  0.45936826577104967  0.881126042364148  0.8110229139377786  1.0000
  C   C8        1.0  0.5406317337253438  0.881126042364148  0.6889770858625123  1.0000
  C   C9        1.0  0.04328234392483122  0.7409426454496093  0.18947663977944104  1.0000
  C   C10       1.0  0.9567176563832105  0.7409426454496093  0.31052336049181556  1.0000
  C   C11       1.0  0.5432823437105887  0.24094264564680995  0.18947663945534707  1.0000
  C   C12       1.0  0.45671765631731176  0.24094264564680995  0.3105233600458872  1.0000
  C   C13       1.0  0.9567176561174573  0.25905735415598935  0.8105233606413439  1.0000
  C   C14       1.0  0.04328234365907778  0.25905735415598935  0.6894766399289695  1.0000
  C   C15       1.0  0.4567176560515583  0.7590573539587887  0.8105233601954156  1.0000
  C   C16       1.0  0.5432823434448353  0.7590573539587887  0.6894766396048755  1.0000
  C   C17       1.0  2.2819277504387079e-10  0.802498025102125  0.2500000000747111  1.0000
  C   C18       1.0  0.5000000000139502  0.30249802529932573  0.24999999975061718  1.0000
  C   C19       1.0  0.9999999999624393  0.1975019745034736  0.7500000002242395  1.0000
  C   C20       1.0  0.49999999974819676  0.6975019751745185  0.7499999999001454  1.0000
  C   C21       1.0  0.26433834078049895  0.4251854228704626  0.04745216059175144  1.0000
  C   C22       1.0  0.7356616592474015  0.4251854228704626  0.45254783890948286  1.0000
  C   C23       1.0  0.7643383408463977  0.9251854235415075  0.04745216103767969  1.0000
  C   C24       1.0  0.23566165946164402  0.9251854235415075  0.45254783923357683  1.0000
  C   C25       1.0  0.735661659703787  0.574814576735136  0.9525478390589053  1.0000
  C   C26       1.0  0.26433834051474553  0.574814576735136  0.5474521607412798  1.0000
  C   C27       1.0  0.2356616591958906  0.07481457693233672  0.9525478393831053  1.0000
  C   C28       1.0  0.764338340300503  0.07481457693233672  0.5474521604171858  1.0000
  C   C29       1.0  0.23876594563195178  0.5050243830528448  0.9559339891946731  1.0000
  C   C30       1.0  0.7612340538644418  0.5050243830528448  0.5440660106056178  1.0000
  C   C31       1.0  0.7387659454177092  0.005024383250045377  0.9559339888705791  1.0000
  C   C32       1.0  0.2612340540786843  0.005024383250045377  0.5440660109297119  1.0000
  C   C33       1.0  0.7612340541301953  0.494975616552754  0.04406601045608946  1.0000
  C   C34       1.0  0.23876594589770528  0.494975616552754  0.45593398904514487  1.0000
  C   C35       1.0  0.26123405434443775  0.9949756163555533  0.04406601078018346  1.0000
  C   C36       1.0  0.738765945963604  0.9949756163555533  0.4559339894910731  1.0000
  C   C37       1.0  0.1473221613539285  0.6741066155352237  0.8797585506852098  1.0000
  C   C38       1.0  0.852677838142465  0.6741066155352237  0.6202414491150811  1.0000
  C   C39       1.0  0.647322161861825  0.1741066157324243  0.8797585503610099  1.0000
  C   C40       1.0  0.3526778383567076  0.1741066157324243  0.620241449439175  1.0000
  C   C41       1.0  0.8526778386883598  0.32589338407037505  0.12024144973557503  1.0000
  C   C42       1.0  0.14732216161968195  0.32589338407037505  0.3797585505356815  1.0000
  C   C43       1.0  0.35267783862246105  0.8258933838731743  0.12024144928964675  1.0000
  C   C44       1.0  0.6473221614054394  0.8258933838731743  0.3797585502115876  1.0000
  C   C45       1.0  0.07117283736981928  0.7626633148616869  0.8886763635132573  1.0000
  C   C46       1.0  0.9288271621265742  0.7626633148616869  0.6113236362870337  1.0000
  C   C47       1.0  0.571172837435718  0.26266331505888757  0.8886763639591855  1.0000
  C   C48       1.0  0.42882716206067545  0.26266331505888757  0.6113236358411054  1.0000
  C   C49       1.0  0.9288271623923278  0.23733668561215732  0.11132363613750534  1.0000
  C   C50       1.0  0.07117283791571412  0.23733668561215732  0.3886763641337513  1.0000
  C   C51       1.0  0.4288271626065702  0.7373366854149567  0.11132363646159933  1.0000
  C   C52       1.0  0.5711728377014715  0.7373366854149567  0.38867636380965725  1.0000
  C   C53       1.0  0.8990308126972145  0.7852240960517806  0.8841345295154236  1.0000
  C   C54       1.0  0.10096918679917899  0.7852240960517806  0.6158654702848675  1.0000
  C   C55       1.0  0.3990308129114571  0.28522409624898126  0.8841345298395176  1.0000
  C   C56       1.0  0.6009691873070754  0.28522409624898126  0.6158654699606674  1.0000
  C   C57       1.0  0.10096918706493244  0.2147759035538181  0.11586547013533907  1.0000
  C   C58       1.0  0.899030812962968  0.2147759035538181  0.38413452936589526  1.0000
  C   C59       1.0  0.6009691871308313  0.7147759033566174  0.11586547058126731  1.0000
  C   C60       1.0  0.39903081317721056  0.7147759033566174  0.38413452968998923  1.0000
  C   C61       1.0  0.802717604987677  0.7171982120329129  0.8734745512549935  1.0000
  C   C62       1.0  0.19728239523085556  0.7171982120329129  0.6265254485451913  1.0000
  C   C63       1.0  0.3027176052019195  0.217198211361868  0.8734745515790876  1.0000
  C   C64       1.0  0.697282395016613  0.217198211361868  0.6265254482210972  1.0000
  C   C65       1.0  0.19728239477447004  0.28280178844093135  0.12652544839576904  1.0000
  C   C66       1.0  0.8027176052534304  0.28280178844093135  0.3734745511054653  1.0000
  C   C67       1.0  0.6972823948403688  0.7828017882437306  0.1265254488416973  1.0000
  C   C68       1.0  0.3027176047455339  0.7828017882437306  0.37347455142966524  1.0000
  N   N1        1.0  2.2819277504387079e-10  0.5623254542069931  0.2500000000747111  1.0000
  N   N2        1.0  0.5000000000139502  0.062325454404193736  0.24999999975061718  1.0000
  N   N3        1.0  0.9999999999624393  0.4376745453986056  0.7500000002242395  1.0000
  N   N4        1.0  0.49999999974819676  0.937674545201405  0.7499999999001454  1.0000
  N   N5        1.0  0.08167417835042028  0.5538021291308413  0.13148049836945627  1.0000
  N   N6        1.0  0.9183258212354825  0.5538021291308413  0.36851950190190635  1.0000
  N   N7        1.0  0.5816741781361777  0.05380212932804194  0.13148049804536224  1.0000
  N   N8        1.0  0.4183258211695837  0.05380212932804194  0.36851950145597806  1.0000
  N   N9        1.0  0.9183258216918682  0.4461978704747574  0.8685195020513287  1.0000
  N   N10       1.0  0.08167417880680578  0.4461978704747574  0.6314804985188784  1.0000
  N   N11       1.0  0.4183258216259692  0.9461978702775569  0.8685195016054004  1.0000
  N   N12       1.0  0.5816741785925633  0.9461978702775569  0.6314804981947846  1.0000
  O   O1        1.0  0.17680584296440938  0.35491633012842627  0.0383447056298815  1.0000
  O   O2        1.0  0.8231941566214933  0.35491633012842627  0.4616552946414811  1.0000
  O   O3        1.0  0.6768058434723059  0.8549163307994713  0.03834470530568149  1.0000
  O   O4        1.0  0.323194156835736  0.8549163307994713  0.46165529496557506  1.0000
  O   O5        1.0  0.8231941570778788  0.6450836694771724  0.9616552947909033  1.0000
  O   O6        1.0  0.1768058431406536  0.6450836694771724  0.5383447050092816  1.0000
  O   O7        1.0  0.3231941570119802  0.14508366967437306  0.9616552943449752  1.0000
  O   O8        1.0  0.6768058432065523  0.14508366967437306  0.5383447054552098  1.0000
  O   O9        1.0  0.1781354780332843  0.6001356737212971  0.96824336486052  1.0000
  O   O10       1.0  0.8218645221852482  0.6001356737212971  0.531756634939665  1.0000
  O   O11       1.0  0.6781354780991831  0.1001356730502521  0.9682433653064482  1.0000
  O   O12       1.0  0.3218645223994908  0.1001356730502521  0.531756635263759  1.0000
  O   O13       1.0  0.8218645217288627  0.3998643267525473  0.031756634790242676  1.0000
  O   O14       1.0  0.17813547757689874  0.3998643267525473  0.4682433647110977  1.0000
  O   O15       1.0  0.3218645219431053  0.8998643265553466  0.03175663511433668  1.0000
  O   O16       1.0  0.6781354776427975  0.8998643265553466  0.46824336515702586  1.0000
  O   O17       1.0  0.974740029760251  0.7073574320150045  0.8739043299333467  1.0000
  O   O18       1.0  0.025259970016283884  0.7073574320150045  0.6260956706369666  1.0000
  O   O19       1.0  0.4747400296943522  0.2073574322122051  0.8739043294874184  1.0000
  O   O20       1.0  0.5252599698020413  0.2073574322122051  0.6260956703128726  1.0000
  O   O21       1.0  0.02525997028203735  0.29264256759059426  0.12609567048743828  1.0000
  O   O22       1.0  0.9747400300260044  0.29264256759059426  0.3739043297838183  1.0000
  O   O23       1.0  0.5252599700677948  0.7926425673933936  0.12609567016334428  1.0000
  O   O24       1.0  0.4747400299601056  0.7926425673933936  0.37390432933789003  1.0000
  F   F1        1.0  0.08724809704158967  0.7994029016710942  0.12949174377516728  1.0000
  F   F2        1.0  0.9127519032664522  0.7994029016710942  0.37050825649608926  1.0000
  F   F3        1.0  0.5872480968273471  0.2994029018682949  0.12949174345107328  1.0000
  F   F4        1.0  0.4127519024784143  0.2994029018682949  0.37050825605026705  1.0000
  F   F5        1.0  0.9127519030006985  0.20059709793450445  0.8705082566456176  1.0000
  F   F6        1.0  0.08724809749797524  0.20059709793450445  0.6294917439245896  1.0000
  F   F7        1.0  0.41275190293479985  0.7005970986055493  0.8705082561996894  1.0000
  F   F8        1.0  0.5872480972837326  0.7005970986055493  0.6294917436004955  1.0000
  Cl  Cl1       1.0  2.2819277504387079e-10  0.9516019607440821  0.2500000000747111  1.0000
  Cl  Cl2       1.0  0.5000000000139502  0.4516019609412828  0.24999999975061718  1.0000
  Cl  Cl3       1.0  0.9999999999624393  0.04839803886151653  0.7500000002242395  1.0000
  Cl  Cl4       1.0  0.49999999974819676  0.5483980386643159  0.7499999999001454  1.0000
