data_image0
_chemical_formula_structural       H32C46O4Cl4
_chemical_formula_sum              "H32 C46 O4 Cl4"
_cell_length_a       7.183421789570361
_cell_length_b       11.776763443690406
_cell_length_c       12.370794576766105
_cell_angle_alpha    100.88387778764611
_cell_angle_beta     106.36935789981764
_cell_angle_gamma    90.56312542977108

_space_group_name_H-M_alt    "P 1"
_space_group_IT_number       1

loop_
  _space_group_symop_operation_xyz
  'x, y, z'

loop_
  _atom_site_type_symbol
  _atom_site_label
  _atom_site_symmetry_multiplicity
  _atom_site_fract_x
  _atom_site_fract_y
  _atom_site_fract_z
  _atom_site_occupancy
  H   H1        1.0  0.8113573843362706  0.7115433770561025  0.5120588665056657  1.0000
  H   H2        1.0  0.18864261503063032  0.288456623490764  0.4879411330503667  1.0000
  H   H3        1.0  0.7205570911505101  0.5694914288220314  0.7931733640733885  1.0000
  H   H4        1.0  0.2794429081905097  0.430508570880179  0.20682663550331362  1.0000
  H   H5        1.0  0.13052356332146262  0.763499878416392  0.6616954320664945  1.0000
  H   H6        1.0  0.8694764364021533  0.23650012147953847  0.3383045683694618  1.0000
  H   H7        1.0  0.2880329601593768  0.9244113687537324  0.6136684380498506  1.0000
  H   H8        1.0  0.7119670395901204  0.07558863198685409  0.3863315623654361  1.0000
  H   H9        1.0  0.8532773258126989  0.14890886006431478  0.6906061388611171  1.0000
  H   H10       1.0  0.1467226735542021  0.8510911404825517  0.3093938606949152  1.0000
  H   H11       1.0  0.6943319146048701  0.9872784621938341  0.7414193317403971  1.0000
  H   H12       1.0  0.3056680865214391  0.012721537693786205  0.2585806687190855  1.0000
  H   H13       1.0  0.44253814046161166  0.6977067278890299  0.7348473124331386  1.0000
  H   H14       1.0  0.5574618588794082  0.3022932718131805  0.26515268714356355  1.0000
  H   H15       1.0  0.297136992618888  0.7452801720609921  0.8973270216752489  1.0000
  H   H16       1.0  0.7028630067221318  0.25471982764121825  0.10267297790145324  1.0000
  H   H17       1.0  0.8185441003283908  0.9517229278666952  0.1022563561733168  1.0000
  H   H18       1.0  0.1814559004153222  0.04827707182720511  0.8977436434269118  1.0000
  H   H19       1.0  0.9648857154634485  0.9028757890333782  0.940887919075683  1.0000
  H   H20       1.0  0.03511428566286084  0.09712421085424233  0.05911208138379981  1.0000
  H   H21       1.0  0.5135515375544296  0.8253867859467764  0.17132290246359008  1.0000
  H   H22       1.0  0.4864484631892834  0.17461321374712413  0.8286770971366385  1.0000
  H   H23       1.0  0.300063723661481  0.8628590520928973  0.07653919300912213  1.0000
  H   H24       1.0  0.6999362756795389  0.13714094760931306  0.9234608065675801  1.0000
  H   H25       1.0  0.49495105694260694  0.9702943312861203  0.15119275713098548  1.0000
  H   H26       1.0  0.5050489441837024  0.029705668601500014  0.8488072433284973  1.0000
  H   H27       1.0  0.2658119619311157  0.2069570276920798  0.695341519057882  1.0000
  H   H28       1.0  0.7341880377925003  0.7930429722038506  0.3046584813780744  1.0000
  H   H29       1.0  0.0583651742173573  0.2007154565318736  0.5771106298310728  1.0000
  H   H30       1.0  0.941634826552237  0.7992845440066828  0.422889369748486  1.0000
  H   H31       1.0  0.26155723496912864  0.11975593521113165  0.5607913456663126  1.0000
  H   H32       1.0  0.7384427647544873  0.8802440646847988  0.43920865476964377  1.0000
  C   C1        1.0  0.7179268649653009  0.42440028820360537  0.5208858702850139  1.0000
  C   C2        1.0  0.28207313616100843  0.5755997116840151  0.47911413017446897  1.0000
  C   C3        1.0  0.7602575046288889  0.5288019767076287  0.4805833357757728  1.0000
  C   C4        1.0  0.23974249471213097  0.4711980229945817  0.5194166638009294  1.0000
  C   C5        1.0  0.7865205355198888  0.6374327237098936  0.5478598965431648  1.0000
  C   C6        1.0  0.21347946420372726  0.3625672761860368  0.4521401038927916  1.0000
  C   C7        1.0  0.770939211083863  0.6562114619565813  0.6622960616079697  1.0000
  C   C8        1.0  0.22906078828303808  0.34378853859028513  0.3377039379480627  1.0000
  C   C9        1.0  0.7269849165749479  0.5575796289677443  0.705040527781373  1.0000
  C   C10       1.0  0.2730150845513614  0.4424203709198761  0.2949594726781099  1.0000
  C   C11       1.0  0.7033081079660941  0.4487778433162532  0.638712035402049  1.0000
  C   C12       1.0  0.2966918917575218  0.5512221565796772  0.3612879650339073  1.0000
  C   C13       1.0  0.7970817645768213  0.768974492340515  0.7313894653164416  1.0000
  C   C14       1.0  0.20291823476419849  0.23102550736169555  0.26861053426026066  1.0000
  C   C15       1.0  0.8999814777136681  0.8632599295439527  0.7059153136390031  1.0000
  C   C16       1.0  0.10001852162735171  0.13674007015825787  0.29408468593769893  1.0000
  C   C17       1.0  0.06881144955444492  0.8476502619798498  0.6693701403618665  1.0000
  C   C18       1.0  0.9311885497865748  0.15234973772236066  0.33062985921483556  1.0000
  C   C19       1.0  0.15873849742048776  0.9394108009222483  0.6426795655851559  1.0000
  C   C20       1.0  0.8412615037058214  0.06058919896537221  0.35732043487432685  1.0000
  C   C21       1.0  0.08247791613138486  0.04890304005622302  0.6493855651126209  1.0000
  C   C22       1.0  0.9175220835922313  0.9510969598397074  0.3506144353233355  1.0000
  C   C23       1.0  0.9148297059430963  0.06455071581500756  0.6862747987795538  1.0000
  C   C24       1.0  0.0851702933979235  0.9354492838872027  0.3137252007971483  1.0000
  C   C25       1.0  0.8264083819211402  0.9744469460748737  0.7153146556677944  1.0000
  C   C26       1.0  0.17359161741987955  0.02555305362733665  0.28468534390890765  1.0000
  C   C27       1.0  0.7146784584804495  0.795419360763695  0.8273020239020319  1.0000
  C   C28       1.0  0.28532154086057043  0.20458063893851544  0.17269797567467024  1.0000
  C   C29       1.0  0.5263458964238298  0.7503430742111232  0.8167958078143297  1.0000
  C   C30       1.0  0.4736541032997862  0.2496569256848071  0.18320419262162665  1.0000
  C   C31       1.0  0.44434140173863246  0.7790295082355753  0.9065707980170399  1.0000
  C   C32       1.0  0.5556585980108649  0.22097049250501125  0.09342920239824686  1.0000
  C   C33       1.0  0.5481116197452538  0.8510322484587841  0.010570094085248364  1.0000
  C   C34       1.0  0.4518883796216471  0.14896775208808222  0.9894299054707839  1.0000
  C   C35       1.0  0.7363981650933874  0.8958591307552869  0.021581020735273557  1.0000
  C   C36       1.0  0.2636018356503257  0.10414086893861345  0.9784189788649549  1.0000
  C   C37       1.0  0.8178731471167514  0.8697000988233811  0.9314519541882953  1.0000
  C   C38       1.0  0.18212685222426844  0.1302999008788294  0.06854804538840692  1.0000
  C   C39       1.0  0.45855692543712384  0.879443401568218  0.10720262546406936  1.0000
  C   C40       1.0  0.5414430742864923  0.12055659832771257  0.8927973749718872  1.0000
  C   C41       1.0  0.17251982202834473  0.14860377859155532  0.6184722070323045  1.0000
  C   C42       1.0  0.8274801776952714  0.8513962213043751  0.38152779340365184  1.0000
  C   C43       1.0  0.08035538499599915  0.6194170137045174  0.9352096112623366  1.0000
  C   C44       1.0  0.919644614370902  0.38058298684234904  0.06479038829369578  1.0000
  C   C45       1.0  0.12516924288385223  0.5129574246033416  0.9492061943706371  1.0000
  C   C46       1.0  0.874830756865645  0.4870425761372449  0.05079380604464957  1.0000
  O   O1        1.0  0.6968459925623888  0.32477354175034345  0.46075446450503377  1.0000
  O   O2        1.0  0.3031540081813242  0.675226457943557  0.5392455350951947  1.0000
  O   O3        1.0  0.8693754992639251  0.5814008482079219  0.025293979812879334  1.0000
  O   O4        1.0  0.1306245000770947  0.4185991514942885  0.9747060197638229  1.0000
  Cl  Cl1       1.0  0.7798362209547205  0.5096148373349375  0.34286655334369115  1.0000
  Cl  Cl2       1.0  0.2201637798148737  0.490385163203619  0.6571334462358677  1.0000
  Cl  Cl3       1.0  0.658716284704311  0.33173251379701096  0.695081279415447  1.0000
  Cl  Cl4       1.0  0.3412837146367088  0.6682674859051994  0.30491872016125515  1.0000
