data_image0
_chemical_formula_structural       H70C84N12O6S6Cl2
_chemical_formula_sum              "H70 C84 N12 O6 S6 Cl2"
_cell_length_a       12.283172869866304
_cell_length_b       12.38131326004581
_cell_length_c       15.114822199914714
_cell_angle_alpha    76.51426255023266
_cell_angle_beta     85.90979556489248
_cell_angle_gamma    60.30828651210993

_space_group_name_H-M_alt    "P 1"
_space_group_IT_number       1

loop_
  _space_group_symop_operation_xyz
  'x, y, z'

loop_
  _atom_site_type_symbol
  _atom_site_label
  _atom_site_symmetry_multiplicity
  _atom_site_fract_x
  _atom_site_fract_y
  _atom_site_fract_z
  _atom_site_occupancy
  H   H1        1.0  0.9594979947381207  0.3771432721453335  0.7954818251974618  1.0000
  H   H2        1.0  0.24162601719875387  0.2406836250164657  0.7712617310673466  1.0000
  H   H3        1.0  0.10062667182515118  0.5437803949954486  0.7817857289095842  1.0000
  H   H4        1.0  0.8134784679185287  0.2451124488915012  0.8442830560264104  1.0000
  H   H5        1.0  0.8252930710686014  0.18191243780377178  0.7031209822120857  1.0000
  H   H6        1.0  0.746912751933031  0.3507554627996118  0.6813114034295192  1.0000
  H   H7        1.0  0.8595417895992515  0.4679133771171575  0.5988729748537392  1.0000
  H   H8        1.0  0.02953467937996931  0.4617155517432603  0.4974150646067923  1.0000
  H   H9        1.0  0.2020040305789278  0.2534555098435353  0.4718544174149337  1.0000
  H   H10       1.0  0.2017777195348858  0.0522896637747057  0.5474282441224255  1.0000
  H   H11       1.0  0.029761157023450165  0.05927420771632751  0.6462936780126091  1.0000
  H   H12       1.0  0.2741671294924812  0.8437534490952309  0.8524857637929829  1.0000
  H   H13       1.0  0.519060512035687  0.1004714179310514  0.7657857156211124  1.0000
  H   H14       1.0  0.42269362878623373  0.1317753239034953  0.6149540044748082  1.0000
  H   H15       1.0  0.3362862485428906  0.2986027833488846  0.6064822721863473  1.0000
  H   H16       1.0  0.65956822443263  0.020383183255428042  0.6149086420388132  1.0000
  H   H17       1.0  0.8380002085830733  0.037530573733244685  0.5387168738733412  1.0000
  H   H18       1.0  0.8146472880134323  0.2508191273020466  0.4672144139938778  1.0000
  H   H19       1.0  0.612306951556093  0.44726988415399277  0.47483888283201653  1.0000
  H   H20       1.0  0.4329199274448292  0.4295997300788951  0.5500916326576818  1.0000
  H   H21       1.0  0.4803125220506263  0.5133424996307484  0.8388001913214326  1.0000
  H   H22       1.0  0.9838540145425966  0.7715233061394416  0.8569036111704806  1.0000
  H   H23       1.0  0.8719971556739182  0.9228793890240907  0.7109312550648358  1.0000
  H   H24       1.0  0.034783927240385766  0.8687739813223104  0.7197796363578511  1.0000
  H   H25       1.0  0.16781203678231837  0.7810554362214941  0.6087268535289162  1.0000
  H   H26       1.0  0.2072357496618352  0.7047715521696438  0.46613414484544713  1.0000
  H   H27       1.0  0.04614268698481877  0.6750859938663121  0.3987028860744935  1.0000
  H   H28       1.0  0.8473498197549996  0.7224421417087825  0.475910335571755  1.0000
  H   H29       1.0  0.8079914933281662  0.7986917834094706  0.6184033859332428  1.0000
  H   H30       1.0  0.5775140758326164  0.7404369766446522  0.8054604107374996  1.0000
  H   H31       1.0  0.17879363939704232  0.7810534294732953  0.06090293281115139  1.0000
  H   H32       1.0  0.017471045083432755  0.08772929536970374  0.0635057824672132  1.0000
  H   H33       1.0  0.3178624455401617  0.938462791598915  0.026618794902421805  1.0000
  H   H34       1.0  0.5828372033425937  0.8246911157257264  0.9807113067691774  1.0000
  H   H35       1.0  0.6712683124252159  0.6969957368063792  0.1315643006119854  1.0000
  H   H36       1.0  0.5770666740969321  0.8574812880730419  0.1410003715165963  1.0000
  H   H37       1.0  0.34771779424815336  0.9232344017780241  0.19839934354780295  1.0000
  H   H38       1.0  0.21305037960204434  0.849086111646837  0.29019512698720995  1.0000
  H   H39       1.0  0.28596323980407096  0.6153544438911636  0.34131736968653187  1.0000
  H   H40       1.0  0.4984317148850749  0.4578390232989775  0.3044938972883122  1.0000
  H   H41       1.0  0.6327238430960469  0.5328542184555565  0.21121495889008643  1.0000
  H   H42       1.0  0.5239537762016611  0.41757132572165495  0.01160703515730162  1.0000
  H   H43       1.0  0.03884570912476905  0.6411809437962216  0.06487155943357056  1.0000
  H   H44       1.0  0.1515126138508315  0.5769209317280697  0.21503710300147058  1.0000
  H   H45       1.0  0.07735003132091428  0.7392951739939644  0.22128145450377676  1.0000
  H   H46       1.0  0.039569895802652535  0.4564280009506072  0.24620266677778554  1.0000
  H   H47       1.0  0.866167415701652  0.43380161367607945  0.325553829501942  1.0000
  H   H48       1.0  0.6830220432414116  0.622189128156335  0.36912299940561827  1.0000
  H   H49       1.0  0.6744634058941913  0.833620639102394  0.33001353560785845  1.0000
  H   H50       1.0  0.8503246108419222  0.8540950419591395  0.2521436452168543  1.0000
  H   H51       1.0  0.6533328598806549  0.10849712934633642  0.9755366580963487  1.0000
  H   H52       1.0  0.8781091529735846  0.36479017246308354  0.9897884718842801  1.0000
  H   H53       1.0  0.9123360881780551  0.4200111672026416  0.1286250190887295  1.0000
  H   H54       1.0  0.8050660266440093  0.36175183676158246  0.13990741849866037  1.0000
  H   H55       1.0  0.8362138701323409  0.18072364885424874  0.2532558238134004  1.0000
  H   H56       1.0  0.9594141435967638  0.007766571021447351  0.38801439420629974  1.0000
  H   H57       1.0  0.17204152491518845  0.9637610937935375  0.42944997855943157  1.0000
  H   H58       1.0  0.26217482360509314  0.09176647722005914  0.33543030987163974  1.0000
  H   H59       1.0  0.14088216908729823  0.26086453877399884  0.20038387598226853  1.0000
  H   H60       1.0  0.33168220347682953  0.31510382063016046  0.9762742075874218  1.0000
  H   H61       1.0  0.5528887807537051  0.21292826619155383  0.41582531483913804  1.0000
  H   H62       1.0  0.7360167100424881  0.06573197921941239  0.34204824229612596  1.0000
  H   H63       1.0  0.7098700528693517  0.05078799453967  0.1830743586204328  1.0000
  H   H64       1.0  0.500960921692158  0.17949635066804961  0.10129581712702374  1.0000
  H   H65       1.0  0.31762853354614834  0.32771986462091046  0.17508774271094918  1.0000
  H   H66       1.0  0.45782491953209165  0.9000580577018444  0.6530883313876994  1.0000
  H   H67       1.0  0.4241433232010809  0.7186775582219976  0.7276035358588446  1.0000
  H   H68       1.0  0.4138922089626612  0.5815410621250888  0.6360341362236578  1.0000
  H   H69       1.0  0.4292443126155505  0.6318582265386055  0.46647505194744626  1.0000
  H   H70       1.0  0.4607594872472498  0.8135879858977146  0.3914904683303593  1.0000
  C   C1        1.0  0.8805612500064405  0.25747902613685747  0.7966650718487874  1.0000
  C   C2        1.0  0.8388687926857853  0.26424314793069165  0.6990016457624061  1.0000
  C   C3        1.0  0.9336646984264387  0.26372372916798115  0.6304806803013079  1.0000
  C   C4        1.0  0.9344732908307146  0.3765936283261744  0.5874661990991022  1.0000
  C   C5        1.0  0.030459731635967262  0.37302410931868185  0.5305363594371894  1.0000
  C   C6        1.0  0.12719684372953108  0.2564956194002425  0.5162635769770224  1.0000
  C   C7        1.0  0.12656867652976345  0.14364420826947139  0.5580952731702491  1.0000
  C   C8        1.0  0.029997879203349773  0.14768695140278418  0.6138783815956457  1.0000
  C   C9        1.0  0.011903980079997612  0.14937239917257908  0.8211582022986863  1.0000
  C   C10       1.0  0.20443363675933712  0.9439530354417232  0.8411239156995041  1.0000
  C   C11       1.0  0.2192660272221403  0.049741143501004795  0.8167609098367  1.0000
  C   C12       1.0  0.33999389491829346  0.04696471130850574  0.7952477945242322  1.0000
  C   C13       1.0  0.4305319836161532  0.1868420413451667  0.7379918580894214  1.0000
  C   C14       1.0  0.42573520201932646  0.21184526580973587  0.6321337168011888  1.0000
  C   C15       1.0  0.5341801056604544  0.2239028132022893  0.5884251100750243  1.0000
  C   C16       1.0  0.6496653407441545  0.11425510416159959  0.5851453568983144  1.0000
  C   C17       1.0  0.7497221917798705  0.12389478081281798  0.5417217340820459  1.0000
  C   C18       1.0  0.736448282248078  0.24368484717877917  0.501305818425496  1.0000
  C   C19       1.0  0.6227980904945735  0.35353545356793487  0.5055023605518447  1.0000
  C   C20       1.0  0.5225139292412742  0.34362920886259374  0.5484929400973533  1.0000
  C   C21       1.0  0.4177130273723988  0.29853302984032726  0.7697878704277301  1.0000
  C   C22       1.0  0.44480659987327986  0.457706755552452  0.8187745915970543  1.0000
  C   C23       1.0  0.32282145638235055  0.4891804942427509  0.8023234284643177  1.0000
  C   C24       1.0  0.2122948669806742  0.611085007581063  0.8125289958289158  1.0000
  C   C25       1.0  0.983203144676101  0.7340189078284517  0.7975783709937535  1.0000
  C   C26       1.0  0.9658113896674  0.8397211890915464  0.7111771495636957  1.0000
  C   C27       1.0  0.9853472738044549  0.7955588059039226  0.6237931620599678  1.0000
  C   C28       1.0  0.09733374807848061  0.7681711073784733  0.5796515478737694  1.0000
  C   C29       1.0  0.11965792855911574  0.7247855589864447  0.49933229511640964  1.0000
  C   C30       1.0  0.02994135354385553  0.7080875392312278  0.46176709831717344  1.0000
  C   C31       1.0  0.9179276077931483  0.7348189405633659  0.5051872213419145  1.0000
  C   C32       1.0  0.8960131897896971  0.777935109758035  0.5855555873131651  1.0000
  C   C33       1.0  0.8784954185740286  0.7036397207792939  0.8033901296575398  1.0000
  C   C34       1.0  0.6759658910628733  0.7129256626042053  0.8043967248559519  1.0000
  C   C35       1.0  0.7783798801301566  0.5966263268045717  0.8013573380627508  1.0000
  C   C36       1.0  0.7676564164333292  0.4828940815132231  0.8003623843150953  1.0000
  C   C37       1.0  0.5155754046446787  0.8148436716763964  0.02934348720010492  1.0000
  C   C38       1.0  0.5739721366158865  0.7750530626207304  0.12860683606644896  1.0000
  C   C39       1.0  0.49918230699809074  0.7328882644278863  0.1965068195312357  1.0000
  C   C40       1.0  0.38129368710491707  0.8209601651750713  0.22092176858360665  1.0000
  C   C41       1.0  0.30474535705379646  0.7790687885531096  0.27262397510181996  1.0000
  C   C42       1.0  0.3457654678443521  0.6486528637183017  0.30190377407074304  1.0000
  C   C43       1.0  0.46487185670746634  0.5598534674482577  0.28095506913936324  1.0000
  C   C44       1.0  0.5404648330187055  0.6021299865519391  0.22875852183428222  1.0000
  C   C45       1.0  0.48673032478057393  0.7155158018434284  0.014853670893792957  1.0000
  C   C46       1.0  0.49599015146353287  0.5147374962645919  0.01357158025798016  1.0000
  C   C47       1.0  0.37945528122239885  0.6129285443526709  0.023942250784420617  1.0000
  C   C48       1.0  0.2648445536373317  0.601458477341463  0.03905665785698387  1.0000
  C   C49       1.0  0.05085688825443607  0.709928943286348  0.09183929199240833  1.0000
  C   C50       1.0  0.06415292664523657  0.6688273045100094  0.19754068883273246  1.0000
  C   C51       1.0  0.9561815805187879  0.6572619543076147  0.24258562121011382  1.0000
  C   C52       1.0  0.9585547930040214  0.5396478435313776  0.2633110332833115  1.0000
  C   C53       1.0  0.8609971637161693  0.5268776258953388  0.30857134042420303  1.0000
  C   C54       1.0  0.7587682078406653  0.6322128628033339  0.3331385821868901  1.0000
  C   C55       1.0  0.7540466442754002  0.7506056347814397  0.3113967964736444  1.0000
  C   C56       1.0  0.8523697447547296  0.7625303338797578  0.266770092980694  1.0000
  C   C57       1.0  0.9436048361675105  0.8427575086155095  0.059629235608391215  1.0000
  C   C58       1.0  0.7481848536401762  0.03755033041278014  0.0016244178515035864  1.0000
  C   C59       1.0  0.8419000906051084  0.05411017779017006  0.029961095556703073  1.0000
  C   C60       1.0  0.8304517365783043  0.180293377718229  0.025460826816273627  1.0000
  C   C61       1.0  0.9455918546069125  0.2883020822583479  0.044027817310467524  1.0000
  C   C62       1.0  0.9049577128552321  0.3335484902132229  0.1348089320934187  1.0000
  C   C63       1.0  0.979500604895837  0.23293783190818643  0.21762380798719405  1.0000
  C   C64       1.0  0.9299707757137994  0.16048669582637126  0.27132387551317255  1.0000
  C   C65       1.0  0.9987347019681868  0.06401272199000457  0.34706761959343735  1.0000
  C   C66       1.0  0.11833096216064078  0.03896413060787519  0.3703363146614628  1.0000
  C   C67       1.0  0.1689830887250321  0.1104180257568442  0.31742023826728233  1.0000
  C   C68       1.0  0.10014999040261585  0.2062488920757088  0.24158487873901588  1.0000
  C   C69       1.0  0.07555951086251286  0.2646857718043697  0.021647518272053714  1.0000
  C   C70       1.0  0.26315353763892874  0.28324529964271505  0.9902344630537264  1.0000
  C   C71       1.0  0.28030928385312665  0.1619141684835998  0.004169661416673456  1.0000
  C   C72       1.0  0.40391321090690097  0.047507627418774304  0.0016646715452398235  1.0000
  C   C73       1.0  0.4255187220690465  0.27601037046535704  0.3001035959667765  1.0000
  C   C74       1.0  0.5425053316009908  0.20515409771626703  0.3471253036233212  1.0000
  C   C75       1.0  0.6449496046195499  0.12317005501632314  0.3047350232809168  1.0000
  C   C76       1.0  0.6300445642338269  0.11411311384051914  0.21653939255853735  1.0000
  C   C77       1.0  0.5124232841825246  0.1869846615281228  0.17014240642797418  1.0000
  C   C78       1.0  0.40872184462074784  0.26879428788971205  0.21177822974287444  1.0000
  C   C79       1.0  0.46326376974312966  0.8654036647348204  0.5182054090102408  1.0000
  C   C80       1.0  0.45220610551890716  0.8408968689102203  0.6124171585331039  1.0000
  C   C81       1.0  0.4335572581453114  0.7385985360565958  0.6541989733951589  1.0000
  C   C82       1.0  0.4268019405928465  0.66206145607069  0.6024407742369845  1.0000
  C   C83       1.0  0.4363973876846019  0.6892009297768744  0.5081679771656172  1.0000
  C   C84       1.0  0.45452260780942905  0.7913943677797739  0.46511175751517186  1.0000
  N   N1        1.0  0.8778916014053519  0.37410800425502183  0.8017224919347716  1.0000
  N   N2        1.0  0.10983434494932474  0.16539126176223534  0.8060667548696424  1.0000
  N   N3        1.0  0.32911010635232946  0.1641730980234414  0.7726579292291276  1.0000
  N   N4        1.0  0.3083722812369719  0.39862906707041734  0.7741718983711232  1.0000
  N   N5        1.0  0.10085007357800761  0.6179948646102801  0.7998255781288751  1.0000
  N   N6        1.0  0.8930102694651598  0.5922858766104164  0.8004472321481148  1.0000
  N   N7        1.0  0.16472028126415222  0.7076967973741629  0.05725458915110637  1.0000
  N   N8        1.0  0.9516857325418976  0.9434392971313365  0.06301040412994037  1.0000
  N   N9        1.0  0.9387211339804118  0.17471018620545767  0.046150970177267645  1.0000
  N   N10       1.0  0.17331354080394198  0.15210146966551916  0.0229290691226211  1.0000
  N   N11       1.0  0.40137639252248875  0.9368621836970236  0.015766997633546182  1.0000
  N   N12       1.0  0.37526722213092695  0.7259848797248092  0.025153602948480826  1.0000
  O   O1        1.0  0.44081144891311724  0.9459478868325951  0.7964211835495009  1.0000
  O   O2        1.0  0.22183252901439396  0.6990627609178063  0.8309601629845825  1.0000
  O   O3        1.0  0.6639807462959203  0.4881576188787181  0.7997813347923917  1.0000
  O   O4        1.0  0.7297755084827355  0.2818482661821727  0.002280669158979571  1.0000
  O   O5        1.0  0.5022212048769586  0.05396099423218214  0.9884762339090053  1.0000
  O   O6        1.0  0.26227359601778816  0.5026865145386  0.03743094248137267  1.0000
  S   S1        1.0  0.04903332851199635  0.9903802000664319  0.8515083555482693  1.0000
  S   S2        1.0  0.5446593158649121  0.31054866018744914  0.7990903565202584  1.0000
  S   S3        1.0  0.7228369964920138  0.8207665442629848  0.8070300684041967  1.0000
  S   S4        1.0  0.6032993687165673  0.565678819890763  0.002818529386427336  1.0000
  S   S5        1.0  0.1091236036840507  0.3890555823531584  0.9989608322315305  1.0000
  S   S6        1.0  0.7992107157439652  0.8785179166779895  0.017087843282711467  1.0000
  Cl  Cl1       1.0  0.2969729577354222  0.37516622384909504  0.3543746978672551  1.0000
  Cl  Cl2       1.0  0.48818834349592544  0.9913839799952971  0.46474404953258636  1.0000
