data_image0
_chemical_formula_structural       H30C24N6I8
_chemical_formula_sum              "H30 C24 N6 I8"
_cell_length_a       8.84470469221259
_cell_length_b       8.936032866211399
_cell_length_c       11.670990362606933
_cell_angle_alpha    84.75507227887978
_cell_angle_beta     83.63842068308949
_cell_angle_gamma    89.85072482699307

_space_group_name_H-M_alt    "P 1"
_space_group_IT_number       1

loop_
  _space_group_symop_operation_xyz
  'x, y, z'

loop_
  _atom_site_type_symbol
  _atom_site_label
  _atom_site_symmetry_multiplicity
  _atom_site_fract_x
  _atom_site_fract_y
  _atom_site_fract_z
  _atom_site_occupancy
  H   H1        1.0  0.3925060837073945  0.41916971622836013  0.6896002051859433  1.0000
  H   H2        1.0  0.6074939159969251  0.5808302839974033  0.3103997952157064  1.0000
  H   H3        1.0  0.5017672056112524  0.513966034278698  0.9014651592046559  1.0000
  H   H4        1.0  0.49823279409306725  0.4860339659470656  0.09853484119699384  1.0000
  H   H5        1.0  0.32180482735064997  0.4274770819326362  0.8971468854579938  1.0000
  H   H6        1.0  0.678195173612505  0.5725229184032251  0.10285311407955476  1.0000
  H   H7        1.0  0.4838415682239112  0.7056791654021348  0.6743431616613597  1.0000
  H   H8        1.0  0.5161584326107449  0.294320834829983  0.32565683874196805  1.0000
  H   H9        1.0  0.17832390650079213  0.6377550739567114  0.9767167664131998  1.0000
  H   H10       1.0  0.8216760933416729  0.3622449252538101  0.02328323312213685  1.0000
  H   H11       1.0  0.08740856309115858  0.9001721808641269  0.9411554116248678  1.0000
  H   H12       1.0  0.9125914367416601  0.09982781946538022  0.058844587911002645  1.0000
  H   H13       1.0  0.20280830421642532  0.06272753145980371  0.7644917279808587  1.0000
  H   H14       1.0  0.7971916966278771  0.9372724676533282  0.23550827242193528  1.0000
  H   H15       1.0  0.40582899125630756  0.9486050912222762  0.6302338397988416  1.0000
  H   H16       1.0  0.5941710085765112  0.051394909107230914  0.369766159737029  1.0000
  H   H17       1.0  0.4931882095477889  0.20590495946729329  0.7885775102488921  1.0000
  H   H18       1.0  0.5068117901565308  0.7940950407584703  0.21142249015275758  1.0000
  H   H19       1.0  0.6316413564230546  0.32310241226901687  0.8335454064960486  1.0000
  H   H20       1.0  0.36835864454010026  0.6768975880668444  0.16645459304150012  1.0000
  H   H21       1.0  0.675110398450269  0.5015283149160003  0.597499678247714  1.0000
  H   H22       1.0  0.32488960138254963  0.4984716854135067  0.4025003212881566  1.0000
  H   H23       1.0  0.6918027733212174  0.039782023646751756  0.6959856096236133  1.0000
  H   H24       1.0  0.3081972263831022  0.9602179765790118  0.3040143907780363  1.0000
  H   H25       1.0  0.8821169132270634  0.012575939813042312  0.5273202203847078  1.0000
  H   H26       1.0  0.11788308660575521  0.9874240605164648  0.47267977915116266  1.0000
  H   H27       1.0  0.9770842429952405  0.24481345717108063  0.39663161798754565  1.0000
  H   H28       1.0  0.022915756709079225  0.7551865430546829  0.6033683824141041  1.0000
  H   H29       1.0  0.8572607091470951  0.4937178708692612  0.44047112296033  1.0000
  H   H30       1.0  0.1427392906857237  0.506282129460246  0.5595288765755406  1.0000
  C   C1        1.0  0.4091714304754636  0.5018792189366605  0.8465248300555213  1.0000
  C   C2        1.0  0.5908285692288561  0.4981207812891031  0.15347517034612848  1.0000
  C   C3        1.0  0.3416136853452432  0.6546474091396594  0.8260774442222107  1.0000
  C   C4        1.0  0.6583863144875755  0.34535259118984774  0.17392255531365972  1.0000
  C   C5        1.0  0.22737791416197564  0.7105676016485302  0.902001673081218  1.0000
  C   C6        1.0  0.7726220855423441  0.2894323985772334  0.09799832732043152  1.0000
  C   C7        1.0  0.17675730953437066  0.8571389089482665  0.8813227658326699  1.0000
  C   C8        1.0  0.8232426914287843  0.1428610913875949  0.11867723370487879  1.0000
  C   C9        1.0  0.23961901481295383  0.9475498396616395  0.7836056338158336  1.0000
  C   C10       1.0  0.7603809850198647  0.05245016066786746  0.21639436572003692  1.0000
  C   C11       1.0  0.3511882223511059  0.8875620299181808  0.7091514394386398  1.0000
  C   C12       1.0  0.6488117773532137  0.11243797030758257  0.29084856096300993  1.0000
  C   C13       1.0  0.5635804645273482  0.3076184840374196  0.7616060989659816  1.0000
  C   C14       1.0  0.43641953530547034  0.6923815162920874  0.23839390056988904  1.0000
  C   C15       1.0  0.6735827212857607  0.2784319768109518  0.658984588461269  1.0000
  C   C16       1.0  0.32641727854705804  0.7215680235185553  0.3410154110746016  1.0000
  C   C17       1.0  0.7322075928725407  0.13754689380943605  0.6381977341214137  1.0000
  C   C18       1.0  0.26779240683177896  0.8624531064163273  0.36180226628023593  1.0000
  C   C19       1.0  0.8410455127396063  0.12414478112754988  0.5442928224705662  1.0000
  C   C20       1.0  0.15895448696471337  0.8758552190982137  0.4557071779310835  1.0000
  C   C21       1.0  0.8918905125532733  0.25098639710439136  0.4709668523588123  1.0000
  C   C22       1.0  0.10810948727954531  0.7490136032251157  0.5290331471770582  1.0000
  C   C23       1.0  0.8289318365479115  0.38838174250019497  0.493376071565943  1.0000
  C   C24       1.0  0.17106816428674482  0.6116182577319227  0.5066239288373848  1.0000
  N   N1        1.0  0.47615493985337903  0.44395174161623197  0.7397852175360488  1.0000
  N   N2        1.0  0.5238450609812771  0.5560482586158858  0.26021478286727906  1.0000
  N   N3        1.0  0.39770539682045664  0.7451719927159909  0.7321340133328835  1.0000
  N   N4        1.0  0.6022946028935094  0.254828006390787  0.26786598706823234  1.0000
  N   N5        1.0  0.7235291715252127  0.3970213012981815  0.5851931070972392  1.0000
  N   N6        1.0  0.27647082931908984  0.6029786978149506  0.414806893305555  1.0000
  I   I1        1.0  0.6648713315747385  0.7641156891856555  0.4908538463620448  1.0000
  I   I2        1.0  0.3351286692599176  0.23588431104646226  0.5091461540412829  1.0000
  I   I3        1.0  0.023080848923207234  0.36929108205187133  0.7872714044170134  1.0000
  I   I4        1.0  0.9769191507907588  0.6307089170549065  0.21272859598410235  1.0000
  I   I5        1.0  0.8337692780105888  0.6308140532750045  0.8494136966314295  1.0000
  I   I6        1.0  0.1662307217033774  0.36918594583177333  0.15058630376968637  1.0000
  I   I7        1.0  0.652026834823943  0.8810379092657725  0.9358059795399695  1.0000
  I   I8        1.0  0.3479731648803768  0.11896209095999098  0.06419402086168031  1.0000
