data_image0
_chemical_formula_structural       H52C48N6O10F4Cl2
_chemical_formula_sum              "H52 C48 N6 O10 F4 Cl2"
_cell_length_a       8.461289850397543
_cell_length_b       12.119731831679792
_cell_length_c       12.400431870863033
_cell_angle_alpha    70.70061651136771
_cell_angle_beta     83.71144687636998
_cell_angle_gamma    83.91892898803935

_space_group_name_H-M_alt    "P 1"
_space_group_IT_number       1

loop_
  _space_group_symop_operation_xyz
  'x, y, z'

loop_
  _atom_site_type_symbol
  _atom_site_label
  _atom_site_symmetry_multiplicity
  _atom_site_fract_x
  _atom_site_fract_y
  _atom_site_fract_z
  _atom_site_occupancy
  H   H1        1.0  0.6224922181232212  0.26128569717070066  0.02282220472096758  1.0000
  H   H2        1.0  0.377507782564959  0.7387143024602343  0.9771777954636494  1.0000
  H   H3        1.0  0.6690028385824607  0.48970382552498554  0.2853457982310087  1.0000
  H   H4        1.0  0.3309971619761152  0.5102961749374796  0.7146542019482067  1.0000
  H   H5        1.0  0.9077950524515054  0.3726265231308626  0.22997855016235416  1.0000
  H   H6        1.0  0.09220494692713595  0.6273734773324741  0.7700214500048604  1.0000
  H   H7        1.0  0.1324558837681144  0.09832673853566687  0.04542850256138796  1.0000
  H   H8        1.0  0.8675441156105269  0.90167326192767  0.9545714976058265  1.0000
  H   H9        1.0  0.24182015261087067  0.21712503949631842  0.957924885142102  1.0000
  H   H10       1.0  0.7581798479477052  0.782874960966147  0.0420751150371134  1.0000
  H   H11       1.0  0.9936939957058166  0.10000510215062684  0.8771494798617155  1.0000
  H   H12       1.0  0.006306003802428751  0.8999948974811794  0.1228505203109006  1.0000
  H   H13       1.0  0.2028071423246431  0.09066520195028693  0.8432164883755857  1.0000
  H   H14       1.0  0.7971928570539982  0.9093347985130499  0.1567835117916289  1.0000
  H   H15       1.0  0.9445628659851363  0.4261494180433561  0.7167554814373087  1.0000
  H   H16       1.0  0.05543713457343964  0.5738505824191092  0.2832445187419066  1.0000
  H   H17       1.0  0.8357687623701026  0.30369966091656747  0.7953820009606739  1.0000
  H   H18       1.0  0.16423123700853864  0.6963003395467693  0.20461799920654067  1.0000
  H   H19       1.0  0.07466335237343566  0.4185121946999023  0.8865024264331268  1.0000
  H   H20       1.0  0.9253366483147445  0.5814878049310326  0.11349757375149001  1.0000
  H   H21       1.0  0.8659285074472576  0.4168442700749929  0.9218516207438201  1.0000
  H   H22       1.0  0.13407149322334658  0.5831557306651022  0.07814837857835054  1.0000
  H   H23       1.0  0.16648241335982433  0.16339833331043682  0.6445849459491853  1.0000
  H   H24       1.0  0.8335175861308453  0.8366016674305297  0.35541505336098456  1.0000
  H   H25       1.0  0.953216031890799  0.18349555073445045  0.6643459358670244  1.0000
  H   H26       1.0  0.04678396890940917  0.8165044491741144  0.3356540634605477  1.0000
  H   H27       1.0  0.9565506090729098  0.38404665865372567  0.5491063674840246  1.0000
  H   H28       1.0  0.043449390417759824  0.615953342087241  0.4508936318261452  1.0000
  H   H29       1.0  0.15997293682226074  0.37776239566358333  0.5395962199771152  1.0000
  H   H30       1.0  0.8400270638659192  0.6222376039673515  0.46040378020750183  1.0000
  H   H31       1.0  0.04826243297996726  0.38102336282286536  0.37288733275941294  1.0000
  H   H32       1.0  0.951737566398674  0.6189766376404714  0.6271126674078016  1.0000
  H   H33       1.0  0.9605624319109606  0.24752200928485826  0.4490462084829408  1.0000
  H   H34       1.0  0.039437568647615336  0.752477991177607  0.5509537916962747  1.0000
  H   H35       1.0  0.5900705352703414  0.2104156526788941  0.47435420595852656  1.0000
  H   H36       1.0  0.409929465400263  0.7895843480612009  0.525645793363644  1.0000
  H   H37       1.0  0.11079123257966474  0.14032891527769722  0.32271121921055473  1.0000
  H   H38       1.0  0.8892087681085151  0.8596710843532378  0.6772887809740621  1.0000
  H   H39       1.0  0.37062635557489026  0.03389239332390091  0.2866391216288965  1.0000
  H   H40       1.0  0.629373645225318  0.9661076065846639  0.7133608776986756  1.0000
  H   H41       1.0  0.6448518110205161  0.9611437419771613  0.3666197488818829  1.0000
  H   H42       1.0  0.35514818953805966  0.038856258485303885  0.6333802512973324  1.0000
  H   H43       1.0  0.74415839443071  0.05475767481751503  0.41734297213625565  1.0000
  H   H44       1.0  0.2558416062398943  0.94524232592258  0.582657027185915  1.0000
  H   H45       1.0  0.7174468222490837  0.09314367975601652  0.27037307882030814  1.0000
  H   H46       1.0  0.2825531772591617  0.90685631987579  0.7296269213523079  1.0000
  H   H47       1.0  0.5757638087050092  0.6147135756741631  0.4267332414369646  1.0000
  H   H48       1.0  0.42423619185356654  0.3852864247883023  0.5732667587422507  1.0000
  H   H49       1.0  0.5684222609369691  0.03838855570765245  0.09113069065296926  1.0000
  H   H50       1.0  0.43157773857127624  0.961611443924154  0.9088693095196467  1.0000
  H   H51       1.0  0.39780381445007595  0.794374132289821  0.3043524313549799  1.0000
  H   H52       1.0  0.6021961850581696  0.2056258673419853  0.6956475688176361  1.0000
  C   C1        1.0  0.6337438203835251  0.309976983769957  0.0812339674435013  1.0000
  C   C2        1.0  0.3662561803046552  0.690023015860978  0.9187660327411156  1.0000
  C   C3        1.0  0.49955782999795606  0.3707088164985721  0.11682789050670146  1.0000
  C   C4        1.0  0.5004421705606198  0.6292911839638933  0.8831721096725139  1.0000
  C   C5        1.0  0.5149227868089323  0.4351112073059189  0.18954069042147834  1.0000
  C   C6        1.0  0.4850772125697089  0.5648887931574179  0.8104593097457361  1.0000
  C   C7        1.0  0.6608403462645978  0.4377031020766405  0.2297264788154677  1.0000
  C   C8        1.0  0.33915965311404334  0.5622968983866964  0.7702735213517469  1.0000
  C   C9        1.0  0.793226099071595  0.37371101810446095  0.197130822152025  1.0000
  C   C10       1.0  0.2067739014869807  0.6262889823580046  0.8028691780271904  1.0000
  C   C11       1.0  0.7814103836581723  0.3107942450074669  0.1221112036573372  1.0000
  C   C12       1.0  0.21858961703000787  0.689205754623468  0.8778887965272796  1.0000
  C   C13       1.0  0.922709631814585  0.23197212618046575  0.0997322970995984  1.0000
  C   C14       1.0  0.07729036769366035  0.7680278734513406  0.9002677030730176  1.0000
  C   C15       1.0  0.12800391347399676  0.17669199782898454  0.9697046283268047  1.0000
  C   C16       1.0  0.8719960860342488  0.8233080018028219  0.030295371845811277  1.0000
  C   C17       1.0  0.10188477972725478  0.14744813639005744  0.8629434386658906  1.0000
  C   C18       1.0  0.8981152197809907  0.852551863241749  0.13705656150672546  1.0000
  C   C19       1.0  0.08220509354215112  0.25812593654633514  0.7603008963254312  1.0000
  C   C20       1.0  0.9177949070164247  0.7418740639161302  0.23969910385378415  1.0000
  C   C21       1.0  0.9497303791167752  0.3425683577012237  0.7873295312288222  1.0000
  C   C22       1.0  0.05026962144180091  0.6574316427612417  0.21267046895039318  1.0000
  C   C23       1.0  0.9712639116555428  0.36627914780665927  0.8985062133398918  1.0000
  C   C24       1.0  0.02873608903263707  0.6337208518242757  0.10149378684472506  1.0000
  C   C25       1.0  0.0656200052671924  0.22460233384111467  0.6546310627421408  1.0000
  C   C26       1.0  0.9343799941114488  0.7753976666222222  0.34536893742507374  1.0000
  C   C27       1.0  0.06474924064107615  0.2969619568203178  0.44213477854043415  1.0000
  C   C28       1.0  0.9352507589791976  0.7030380430891184  0.557865220775137  1.0000
  C   C29       1.0  0.2176300372990364  0.23072214671072983  0.41778369798018716  1.0000
  C   C30       1.0  0.782369963501172  0.7692778531978349  0.5822163013473849  1.0000
  C   C31       1.0  0.486802055680707  0.1940641658584701  0.43746950437935084  1.0000
  C   C32       1.0  0.513197943939567  0.805935834050966  0.5625304949362203  1.0000
  C   C33       1.0  0.5030289166828853  0.11518179692253332  0.3753343292955592  1.0000
  C   C34       1.0  0.4969710840052946  0.8848182027084018  0.6246656708890576  1.0000
  C   C35       1.0  0.21965470926291247  0.15397904071055532  0.35493504246924873  1.0000
  C   C36       1.0  0.7803452903573612  0.8460209591988809  0.6450649568463225  1.0000
  C   C37       1.0  0.36465040151043815  0.09626048512983924  0.33346870036166304  1.0000
  C   C38       1.0  0.6353495981098355  0.9037395147795968  0.6665312989539082  1.0000
  C   C39       1.0  0.6604590113246918  0.05279336456938551  0.35652077686446776  1.0000
  C   C40       1.0  0.3395409894755167  0.9472066353391793  0.6434792224631043  1.0000
  C   C41       1.0  0.3166293842404447  0.6031411284855558  0.4435486960459163  1.0000
  C   C42       1.0  0.6833706151381965  0.39685887197778097  0.5564513041212983  1.0000
  C   C43       1.0  0.48263443257339195  0.554796632699719  0.46569235549772825  1.0000
  C   C44       1.0  0.517365568114788  0.44520336693121587  0.5343076446868886  1.0000
  C   C45       1.0  0.5036915128646606  0.9858458529074237  0.056670846293434815  1.0000
  C   C46       1.0  0.49630848664358485  0.014154146724382744  0.9433291538791811  1.0000
  C   C47       1.0  0.42520227629745316  0.8830216343141316  0.1382697729098274  1.0000
  C   C48       1.0  0.574797723081188  0.11697836614920505  0.8617302272573871  1.0000
  N   N1        1.0  0.9979178462467118  0.2573857648965721  0.9928572536026786  1.0000
  N   N2        1.0  0.0020821544414682423  0.7426142347343628  0.007142746581938253  1.0000
  N   N3        1.0  0.06389671652202591  0.32729556010421323  0.5488010993405644  1.0000
  N   N4        1.0  0.9361032841661541  0.6727044395267217  0.4511989008440525  1.0000
  N   N5        1.0  0.3484063998236265  0.2510841858355746  0.458267758748197  1.0000
  N   N6        1.0  0.6515936008645535  0.7489158137953603  0.5417322414364198  1.0000
  O   O1        1.0  0.2918883412158676  0.7128154621476586  0.3911656060461068  1.0000
  O   O2        1.0  0.7081116593427083  0.2871845383148069  0.6088343941331086  1.0000
  O   O3        1.0  0.20299652774612492  0.5351168131428707  0.48020819118557484  1.0000
  O   O4        1.0  0.7970034728124509  0.46488318731959477  0.5197918089936405  1.0000
  O   O5        1.0  0.45775452388798227  0.8636633952650298  0.2456180871795187  1.0000
  O   O6        1.0  0.542245475620263  0.13633660436677666  0.7543819129930972  1.0000
  O   O7        1.0  0.33923073209731786  0.8245234898518037  0.10746895496261528  1.0000
  O   O8        1.0  0.660769268461258  0.17547651061066175  0.8925310452166  1.0000
  O   O9        1.0  0.9651392903910538  0.14439368259203508  0.18076452145724567  1.0000
  O   O10       1.0  0.03486071016752215  0.8556063178704302  0.8192354787219697  1.0000
  F   F1        1.0  0.38490007562899836  0.4963595992446453  0.22160473590449242  1.0000
  F   F2        1.0  0.6150999238792471  0.5036404003871612  0.7783952642681236  1.0000
  F   F3        1.0  0.22938038976958164  0.31588627149677007  0.7384554868594053  1.0000
  F   F4        1.0  0.7706196097386638  0.6841137281350365  0.26154451331321055  1.0000
  Cl  Cl1       1.0  0.31462220453691875  0.3665589631374462  0.07273691516674981  1.0000
  Cl  Cl2       1.0  0.6853777962632898  0.6334410367711186  0.9272630841608223  1.0000
