data_image0
_chemical_formula_structural       H40C48N4O16
_chemical_formula_sum              "H40 C48 N4 O16"
_cell_length_a       7.201858626545805
_cell_length_b       9.284542670271573
_cell_length_c       15.538614489568621
_cell_angle_alpha    77.85420106508404
_cell_angle_beta     88.70037563397811
_cell_angle_gamma    86.93625691090578

_space_group_name_H-M_alt    "P 1"
_space_group_IT_number       1

loop_
  _space_group_symop_operation_xyz
  'x, y, z'

loop_
  _atom_site_type_symbol
  _atom_site_label
  _atom_site_symmetry_multiplicity
  _atom_site_fract_x
  _atom_site_fract_y
  _atom_site_fract_z
  _atom_site_occupancy
  H   H1        1.0  0.1707923574919645  0.244257996365563  0.005531036805997729  1.0000
  H   H2        1.0  0.8292076428398134  0.755742004033929  0.9944689633417122  1.0000
  H   H3        1.0  0.9701805701391701  0.40995066775903005  0.22472668351978195  1.0000
  H   H4        1.0  0.029819428877142805  0.5900493315343263  0.7752733167895993  1.0000
  H   H5        1.0  0.9794683858541635  0.9423660741042432  0.22722455174258332  1.0000
  H   H6        1.0  0.020531614461910742  0.057633926292762316  0.7727754477620897  1.0000
  H   H7        1.0  0.7992826871635133  0.3731701123410267  0.33199718265486927  1.0000
  H   H8        1.0  0.20071731315256083  0.626829888055979  0.6680028168498037  1.0000
  H   H9        1.0  0.12246638491151159  0.9988937304462981  0.07629210106110491  1.0000
  H   H10       1.0  0.8775336154934014  0.0011062688501116236  0.9237078992259424  1.0000
  H   H11       1.0  0.10689164849862429  0.4470589249671917  0.07391758756595207  1.0000
  H   H12       1.0  0.8931083505176887  0.5529410743261647  0.9260824127434291  1.0000
  H   H13       1.0  0.6671015227677379  0.31232976599676965  0.4836618078672703  1.0000
  H   H14       1.0  0.3328984776214714  0.6876702332971536  0.5163381917767402  1.0000
  H   H15       1.0  0.7851093765822668  0.8664729754919253  0.5050509821058111  1.0000
  H   H16       1.0  0.21489062234520728  0.13352702490202706  0.49494901742119574  1.0000
  H   H17       1.0  0.9263117076658473  0.9048921995204904  0.35497024464690025  1.0000
  H   H18       1.0  0.07368829272336207  0.09510779977343288  0.6450297549971103  1.0000
  H   H19       1.0  0.3438715843836948  0.949254858240867  0.40784797978726495  1.0000
  H   H20       1.0  0.6561284160055144  0.050745141053056324  0.5921520198567457  1.0000
  H   H21       1.0  0.36780365624694344  0.36216153171400867  0.29004307718027666  1.0000
  H   H22       1.0  0.6321963440691308  0.637838468682997  0.7099569223243963  1.0000
  H   H23       1.0  0.6816183597992382  0.9198657181694778  0.06553934380833422  1.0000
  H   H24       1.0  0.3183816405325396  0.0801342822300143  0.9344606563393756  1.0000
  H   H25       1.0  0.533889833994818  0.9495977038764697  0.19857405369316353  1.0000
  H   H26       1.0  0.4661101649483598  0.05040229651996884  0.8014259464768801  1.0000
  H   H27       1.0  0.685709034598817  0.30545200711413095  0.9878653930882016  1.0000
  H   H28       1.0  0.3142909643443608  0.6945479932823078  0.012134607081842044  1.0000
  H   H29       1.0  0.5662158986908132  0.4891791901718898  0.07750819255226524  1.0000
  H   H30       1.0  0.43378410164096465  0.5108208102276023  0.9224918075954446  1.0000
  H   H31       1.0  0.15323458670179532  0.6701666510717327  0.2078667319516052  1.0000
  H   H32       1.0  0.8467654122413825  0.329833349324706  0.7921332682184385  1.0000
  H   H33       1.0  0.3391451400886428  0.6354000175565798  0.3441313792808325  1.0000
  H   H34       1.0  0.660854860243135  0.3645999828429122  0.6558686208668774  1.0000
  H   H35       1.0  0.5413478459503869  0.6777079125621995  0.2223629487251093  1.0000
  H   H36       1.0  0.45865215443882223  0.32229208673172377  0.7776370509189012  1.0000
  H   H37       1.0  0.7162889185321764  0.5920790800211823  0.4921563723431243  1.0000
  H   H38       1.0  0.283711081857033  0.4079209192727411  0.5078436273008863  1.0000
  H   H39       1.0  0.04888448445602062  0.6102235566816497  0.4413779170571697  1.0000
  H   H40       1.0  0.9511155159488922  0.3897764426147598  0.5586220832298776  1.0000
  C   C1        1.0  0.878105976343579  0.14379344878633588  0.329280810470527  1.0000
  C   C2        1.0  0.1218940225995988  0.8562065516101027  0.6707191896995167  1.0000
  C   C3        1.0  0.9603569551012231  0.1719862558482966  0.23967543661425694  1.0000
  C   C4        1.0  0.03964304521485099  0.828013744548709  0.7603245628904161  1.0000
  C   C5        1.0  0.9977829713787182  0.315404975090958  0.194679209009618  1.0000
  C   C6        1.0  0.0022170289530597615  0.684595025308534  0.8053207911380917  1.0000
  C   C7        1.0  0.005313607694718542  0.055885499412904244  0.1964516193093669  1.0000
  C   C8        1.0  0.9946863926370593  0.9441145009865878  0.8035483808383429  1.0000
  C   C9        1.0  0.803325342019255  0.2587995264345481  0.367365006022464  1.0000
  C   C10       1.0  0.1966746583699542  0.7412004728593752  0.6326349936215465  1.0000
  C   C11       1.0  0.08301758063598157  0.08410430608800212  0.1127578329141084  1.0000
  C   C12       1.0  0.9169824196957963  0.91589569431149  0.8872421672336015  1.0000
  C   C13       1.0  0.07470116732805687  0.33799265862144295  0.110903165682163  1.0000
  C   C14       1.0  0.9252988330037211  0.6620073417780491  0.8890968344655468  1.0000
  C   C15       1.0  0.7275777857982696  0.22639650965950442  0.4518652867963532  1.0000
  C   C16       1.0  0.2724222145909396  0.7736034896344188  0.5481347128476572  1.0000
  C   C17       1.0  0.7930696633378715  0.976450157183394  0.4635226402281701  1.0000
  C   C18       1.0  0.20693033697820262  0.02354984321361173  0.536477359276503  1.0000
  C   C19       1.0  0.8709371092605048  0.9998713751296235  0.3795601590377046  1.0000
  C   C20       1.0  0.12906289107127297  0.00012862526986834376  0.6204398411100052  1.0000
  C   C21       1.0  0.4714299655642255  0.16844825920353082  0.22097524892021653  1.0000
  C   C22       1.0  0.5285700347675524  0.8315517411959612  0.7790247512274933  1.0000
  C   C23       1.0  0.5399413384160507  0.06720508372042733  0.1705742837014386  1.0000
  C   C24       1.0  0.46005866197315853  0.932794915573496  0.829425715942572  1.0000
  C   C25       1.0  0.39280880568858445  0.1185941950931419  0.3098923795722135  1.0000
  C   C26       1.0  0.6071911946274897  0.8814058053038638  0.6901076199324595  1.0000
  C   C27       1.0  0.6161263788639975  0.11710271181681121  0.08714956811925514  1.0000
  C   C28       1.0  0.38387362146778026  0.8828972885826808  0.9128504320284547  1.0000
  C   C29       1.0  0.48049906282926713  0.32196511561044716  0.18651589215748995  1.0000
  C   C30       1.0  0.5195009361139106  0.6780348847859915  0.8134841080125537  1.0000
  C   C31       1.0  0.6237800337124586  0.26977956812280346  0.05310728287383714  1.0000
  C   C32       1.0  0.3762199666193194  0.7302204322766886  0.9468927172738726  1.0000
  C   C33       1.0  0.557903703982176  0.3707648553636994  0.10225053649026838  1.0000
  C   C34       1.0  0.4420962963496019  0.6292351450357926  0.8977494636574415  1.0000
  C   C35       1.0  0.835591204281969  0.6742243914949628  0.24166560672724385  1.0000
  C   C36       1.0  0.16440879603410533  0.32577560890204277  0.7583343927774292  1.0000
  C   C37       1.0  0.650114483935871  0.6652759247761767  0.27116715625216553  1.0000
  C   C38       1.0  0.34988551508044197  0.3347240745171796  0.7288328440572156  1.0000
  C   C39       1.0  0.7520562037756251  0.615698647155533  0.4221201402691845  1.0000
  C   C40       1.0  0.2479437965404491  0.3843013532414726  0.5778798592354886  1.0000
  C   C41       1.0  0.8819225648728671  0.701389187006596  0.14602613616073762  1.0000
  C   C42       1.0  0.1180774354432069  0.29861081339040957  0.8539738633439354  1.0000
  C   C43       1.0  0.9367491059298788  0.6247970466266609  0.3939069917242153  1.0000
  C   C44       1.0  0.06325089445933037  0.3752029526672624  0.6060930079197953  1.0000
  C   C45       1.0  0.6072434398023419  0.6338023637949396  0.36098673626037614  1.0000
  C   C46       1.0  0.39275656052943597  0.36619763660455235  0.6390132638873336  1.0000
  C   C47       1.0  0.980536053976123  0.652768701265383  0.3037917534903154  1.0000
  C   C48       1.0  0.019463944951350957  0.34723129912856937  0.6962082460366914  1.0000
  N   N1        1.0  0.11452063098027085  0.22359150463709734  0.0719884263942381  1.0000
  N   N2        1.0  0.8854793693515071  0.7764084957623947  0.9280115737534717  1.0000
  N   N3        1.0  0.7236322392786274  0.08769986126441354  0.49941095714304773  1.0000
  N   N4        1.0  0.2763677611105817  0.9123001380295097  0.5005890425009628  1.0000
  O   O1        1.0  0.329653130691579  0.21048623813213607  0.35403817726120135  1.0000
  O   O2        1.0  0.6703468696976302  0.7895137611617873  0.6459618223828092  1.0000
  O   O3        1.0  0.39290577024687756  0.9753824836454533  0.33989843652218005  1.0000
  O   O4        1.0  0.6070942300849003  0.024617516754038556  0.6601015636255296  1.0000
  O   O5        1.0  0.6899486549263295  0.025300018433954533  0.036005941421375365  1.0000
  O   O6        1.0  0.31005134538974466  0.974699981963051  0.9639940580832976  1.0000
  O   O7        1.0  0.4152231583399  0.4230196820974736  0.23223693039279905  1.0000
  O   O8        1.0  0.5847768419918778  0.5769803183020183  0.7677630697549107  1.0000
  O   O9        1.0  0.4307710838715181  0.6164213460519202  0.39302573649046757  1.0000
  O   O10       1.0  0.569228916444556  0.38357865434508537  0.6069742630142054  1.0000
  O   O11       1.0  0.7493783833711665  0.732746601413026  0.09026189632091544  1.0000
  O   O12       1.0  0.25062161564514646  0.26725339788033015  0.9097381039884657  1.0000
  O   O13       1.0  0.05347957548252767  0.6914914287041359  0.12301347247319325  1.0000
  O   O14       1.0  0.9465204235337852  0.3085085705892204  0.8769865278361879  1.0000
  O   O15       1.0  0.16085863595185368  0.6603933447808834  0.27596663161039436  1.0000
  O   O16       1.0  0.8391413643799243  0.3396066556186086  0.7240333685373155  1.0000
