data_image0
_chemical_formula_structural       H84C68N4O20F24S8
_chemical_formula_sum              "H84 C68 N4 O20 F24 S8"
_cell_length_a       11.020325138699958
_cell_length_b       16.882331454054473
_cell_length_c       11.78173704286246
_cell_angle_alpha    90.0
_cell_angle_beta     102.97695907848552
_cell_angle_gamma    90.0

_space_group_name_H-M_alt    "P 1"
_space_group_IT_number       1

loop_
  _space_group_symop_operation_xyz
  'x, y, z'

loop_
  _atom_site_type_symbol
  _atom_site_label
  _atom_site_symmetry_multiplicity
  _atom_site_fract_x
  _atom_site_fract_y
  _atom_site_fract_z
  _atom_site_occupancy
  H   H1        1.0  0.8314892056313843  0.02764761557195369  0.6475960003604134  1.0000
  H   H2        1.0  0.6685107945574504  0.527647615748041  0.8524039999469492  1.0000
  H   H3        1.0  0.16851079511184405  0.9723523841878855  0.3524040005431479  1.0000
  H   H4        1.0  0.33148920525977016  0.47235238401179835  0.14759599990863276  1.0000
  H   H5        1.0  0.9433684949066726  0.015659728084328545  0.5628647727168663  1.0000
  H   H6        1.0  0.5566315052873364  0.5156597282604158  0.9371352267428251  1.0000
  H   H7        1.0  0.05663150491054783  0.9843402716755109  0.43713522713871567  1.0000
  H   H8        1.0  0.4433684945298842  0.4843402720917588  0.06286477311275689  1.0000
  H   H9        1.0  0.08760178551357777  0.9092779111568359  0.6048881334344053  1.0000
  H   H10       1.0  0.41239821443750074  0.4092779109807487  0.8951118662602267  1.0000
  H   H11       1.0  0.9123982143036429  0.09072208919533858  0.3951118664211767  1.0000
  H   H12       1.0  0.5876017853797196  0.5907220887790906  0.10488813359535516  1.0000
  H   H13       1.0  0.17797352146270115  0.7950404519973177  0.731241088378753  1.0000
  H   H14       1.0  0.3220264784883775  0.29504045182123034  0.7687589113158789  1.0000
  H   H15       1.0  0.8220264783545195  0.2049595477625217  0.2687589114768288  1.0000
  H   H16       1.0  0.6779735213288431  0.7049595479386089  0.23124108853970304  1.0000
  H   H17       1.0  0.98526520845644  0.8716062707361486  0.9915604042220292  1.0000
  H   H18       1.0  0.5147347917323948  0.37160627056006135  0.5084395960853335  1.0000
  H   H19       1.0  0.014734791360780637  0.12839372961602594  0.008439595633552822  1.0000
  H   H20       1.0  0.4852652080848257  0.628393729199778  0.4915604037702484  1.0000
  H   H21       1.0  0.8966956393374707  0.9866528556990061  0.866059224084521  1.0000
  H   H22       1.0  0.6033043608565385  0.48665285552291887  0.6339407753751704  1.0000
  H   H23       1.0  0.10330436141093213  0.013347144653168408  0.13394077597136905  1.0000
  H   H24       1.0  0.39669563896068205  0.5133471442369204  0.3660592244804116  1.0000
  H   H25       1.0  0.1057887515658605  0.6378227053120655  0.9552236442554929  1.0000
  H   H26       1.0  0.3942112483800437  0.13782270513597822  0.5447763562868103  1.0000
  H   H27       1.0  0.8942112482461857  0.3621772950401091  0.04477635644776035  1.0000
  H   H28       1.0  0.6057887514371768  0.8621772952161962  0.45522364356877154  1.0000
  H   H29       1.0  0.00045683253718959517  0.6884754497109814  0.8401516879062358  1.0000
  H   H30       1.0  0.4995431674087147  0.18847544953489415  0.6598483126360676  1.0000
  H   H31       1.0  0.999543167280031  0.3115245506411931  0.15984831194934618  1.0000
  H   H32       1.0  0.5004568324033315  0.8115245502249451  0.34015168806718565  1.0000
  H   H33       1.0  0.9872964870090978  0.7010391688025801  0.9874881982866842  1.0000
  H   H34       1.0  0.5127035131797371  0.20103916862649276  0.5125118020206787  1.0000
  H   H35       1.0  0.01270351280812288  0.2989608315495945  0.012511801568897928  1.0000
  H   H36       1.0  0.4872964875686657  0.7989608317256817  0.48748819803521154  1.0000
  H   H37       1.0  0.21779383624024276  0.6689354554336641  0.1255459023138076  1.0000
  H   H38       1.0  0.28220616320536357  0.16893545584991201  0.37445409708999366  1.0000
  H   H39       1.0  0.7822061635769778  0.33106454432617527  0.8744540975417744  1.0000
  H   H40       1.0  0.717793836611857  0.8310645445022625  0.6255459027655883  1.0000
  H   H41       1.0  0.3657776134020079  0.7173230529774745  0.16271508747233004  1.0000
  H   H42       1.0  0.13422238696960634  0.21732305280138717  0.3372849129794507  1.0000
  H   H43       1.0  0.6342223873412205  0.2826769467823648  0.8372849134312313  1.0000
  H   H44       1.0  0.8657776128476141  0.7826769469584521  0.6627150868761313  1.0000
  H   H45       1.0  0.32869277810846786  0.652206353723475  0.04131752733120435  1.0000
  H   H46       1.0  0.1713072213319641  0.15220635354738776  0.4586824729202682  1.0000
  H   H47       1.0  0.6713072217087528  0.34779364662869955  0.9586824725243777  1.0000
  H   H48       1.0  0.8286927784852565  0.8477936462124515  0.5413175269353138  1.0000
  H   H49       1.0  0.4095682970777494  0.8145592939829049  0.986545432955288  1.0000
  H   H50       1.0  0.09043170287332924  0.31455929380681763  0.5134545667393441  1.0000
  H   H51       1.0  0.5904317027394712  0.18544070577693436  0.013454566900293957  1.0000
  H   H52       1.0  0.9095682969438913  0.6854407059530216  0.4865454331162379  1.0000
  H   H53       1.0  0.3560243198081992  0.8550681752272522  0.10559187809197267  1.0000
  H   H54       1.0  0.14397567963223276  0.3550681756435001  0.39440812215949983  1.0000
  H   H55       1.0  0.6439756800090214  0.14493182453258716  0.8944081217636093  1.0000
  H   H56       1.0  0.8560243201849878  0.6449318247086744  0.605591877696082  1.0000
  H   H57       1.0  0.2833202620728313  0.8834238458467288  0.9598282153734935  1.0000
  H   H58       1.0  0.21667973787824735  0.38342384626297676  0.5401717843211387  1.0000
  H   H59       1.0  0.7166797377443893  0.11657615391311045  0.040171784482088566  1.0000
  H   H60       1.0  0.7833202619389733  0.6165761540891977  0.45982821553444336  1.0000
  H   H61       1.0  0.5973593541063988  0.12962862007275805  0.32964754803506563  1.0000
  H   H62       1.0  0.9026406455769637  0.6296286202488454  0.17035245198146626  1.0000
  H   H63       1.0  0.4026406457108218  0.8703713796870812  0.6703524518205163  1.0000
  H   H64       1.0  0.09735935424025689  0.37037138010332926  0.8296475478741158  1.0000
  H   H65       1.0  0.6487307884541801  0.030518927519117146  0.3254016047251669  1.0000
  H   H66       1.0  0.8512692112291825  0.5305189276952044  0.174598395291365  1.0000
  H   H67       1.0  0.35126921136304046  0.9694810728330574  0.674598395130415  1.0000
  H   H68       1.0  0.14873078858803815  0.46948107265697014  0.8254016045642171  1.0000
  H   H69       1.0  0.6015218988984002  0.06554067268560038  0.4523261408077038  1.0000
  H   H70       1.0  0.8984781007849624  0.5655406728616876  0.047673859208828204  1.0000
  H   H71       1.0  0.39847810091882035  0.934459327074239  0.5476738590478782  1.0000
  H   H72       1.0  0.10152189903225829  0.43445932689815164  0.9523261406467537  1.0000
  H   H73       1.0  0.3188614156707213  0.012995029779924859  0.1466471480051664  1.0000
  H   H74       1.0  0.18113858377488512  0.5129950299560121  0.3533528513986348  1.0000
  H   H75       1.0  0.6811385841464993  0.9870049705722496  0.8533528518504155  1.0000
  H   H76       1.0  0.8188614160423355  0.4870049703961624  0.646647148456947  1.0000
  H   H77       1.0  0.4771506961779663  0.9834925090285713  0.15325268252069854  1.0000
  H   H78       1.0  0.022849304193647807  0.4834925088524839  0.34674731793108216  1.0000
  H   H79       1.0  0.5228493036392541  0.01650749132360334  0.8467473173348833  1.0000
  H   H80       1.0  0.9771506965495805  0.5165074909073554  0.6532526829724793  1.0000
  H   H81       1.0  0.4348208347028884  0.08371262546563671  0.12851507792652245  1.0000
  H   H82       1.0  0.06517916566872575  0.583712625641724  0.3714849225252583  1.0000
  H   H83       1.0  0.5651791651143322  0.9162873742942026  0.8714849219290596  1.0000
  H   H84       1.0  0.9348208350796771  0.41628737411811534  0.6285150775306318  1.0000
  C   C1        1.0  0.9891807711079412  0.1030110121183733  0.7002620679706172  1.0000
  C   C2        1.0  0.5108192281548856  0.6030110122944605  0.7997379312887659  1.0000
  C   C3        1.0  0.010819228709279198  0.8969889876414661  0.2997379318849647  1.0000
  C   C4        1.0  0.489180771662335  0.3969889874653787  0.20026206856681594  1.0000
  C   C5        1.0  0.9321516341514825  0.02463969630806526  0.6521554710616624  1.0000
  C   C6        1.0  0.5678483660373522  0.5246396964841525  0.8478445292457003  1.0000
  C   C7        1.0  0.06784836566573801  0.9753603034517739  0.3478445287939195  1.0000
  C   C8        1.0  0.4321516347110506  0.4753603032756868  0.15215547081018987  1.0000
  C   C9        1.0  0.9850121851187243  0.9547655087727192  0.7266234225949405  1.0000
  C   C10       1.0  0.5149878150701105  0.45476550918896724  0.7733765777124223  1.0000
  C   C11       1.0  0.014987814693321841  0.04523449098712003  0.2733765781083129  1.0000
  C   C12       1.0  0.48501218474711016  0.5452344911632072  0.2266234221431597  1.0000
  C   C13       1.0  0.06407980836185423  0.9008028121819466  0.6890906211476993  1.0000
  C   C14       1.0  0.4359201915892243  0.40080281259819456  0.8109093785469327  1.0000
  C   C15       1.0  0.9359201914553663  0.09919718757789273  0.3109093787078826  1.0000
  C   C16       1.0  0.5640798082279962  0.59919718775398  0.18909062130864923  1.0000
  C   C17       1.0  0.11479857652360921  0.836766194790433  0.7586613900128045  1.0000
  C   C18       1.0  0.3852014234274694  0.336766195206681  0.7413386096818275  1.0000
  C   C19       1.0  0.8852014232936114  0.16323380496940623  0.2413386098427774  1.0000
  C   C20       1.0  0.6147985763897512  0.6632338051454935  0.2586613901737545  1.0000
  C   C21       1.0  0.08546645615629794  0.8278935061805891  0.867001631089753  1.0000
  C   C22       1.0  0.41453354379478063  0.3278935060045018  0.632998368604879  1.0000
  C   C23       1.0  0.9145335436609225  0.17210649417158547  0.13299836876582902  1.0000
  C   C24       1.0  0.5854664560224399  0.6721064937553375  0.36700163125070284  1.0000
  C   C25       1.0  0.006795896220689086  0.8807192348085991  0.9067647128798999  1.0000
  C   C26       1.0  0.49320410373038953  0.3807192352248471  0.593235286814732  1.0000
  C   C27       1.0  0.9932041035965316  0.11928076495124015  0.093235286975682  1.0000
  C   C28       1.0  0.5067958960868311  0.6192807651273274  0.4067647130408499  1.0000
  C   C29       1.0  0.9572360626576565  0.9442018902058553  0.836037231926749  1.0000
  C   C30       1.0  0.5427639375311782  0.44420189002976807  0.6639627683806136  1.0000
  C   C31       1.0  0.04276393715956401  0.055798110146319156  0.16396276792883288  1.0000
  C   C32       1.0  0.45723606228604236  0.5557981103224064  0.3360372314749684  1.0000
  C   C33       1.0  0.05257874010227704  0.692203755849935  0.9307471842809196  1.0000
  C   C34       1.0  0.4474212598436272  0.1922037556738477  0.5692528162613837  1.0000
  C   C35       1.0  0.9474212597097691  0.30779624390990434  0.06925281642233366  1.0000
  C   C36       1.0  0.5525787399735934  0.8077962440859915  0.4307471835941983  1.0000
  C   C37       1.0  0.24425664470619038  0.7648345150159339  0.01262750491500925  1.0000
  C   C38       1.0  0.25574335473424165  0.2648345148398467  0.48737249533646326  1.0000
  C   C39       1.0  0.7557433551110303  0.2351654847439053  0.9873724949405727  1.0000
  C   C40       1.0  0.7442566450778045  0.7351654849199926  0.5126275053667899  1.0000
  C   C41       1.0  0.2908551571762885  0.6976334679871165  0.09096917099028091  1.0000
  C   C42       1.0  0.20914484226931784  0.1976334678110292  0.40903082841352034  1.0000
  C   C43       1.0  0.709144842640932  0.30236653236505806  0.909030828865301  1.0000
  C   C44       1.0  0.7908551575479027  0.8023665319488101  0.5909691714420616  1.0000
  C   C45       1.0  0.3264758131310022  0.8346708260259782  0.015288999536860231  1.0000
  C   C46       1.0  0.173524187240612  0.33467082584989094  0.48471100091492053  1.0000
  C   C47       1.0  0.6735241866862184  0.1653291737338611  0.9847110003187217  1.0000
  C   C48       1.0  0.8264758135026165  0.6653291739099484  0.515288999988641  1.0000
  C   C49       1.0  0.8262424036121669  0.23100340617133203  0.6148726256538736  1.0000
  C   C50       1.0  0.6737575965818422  0.7310034063474192  0.8851273738058177  1.0000
  C   C51       1.0  0.17375759620505363  0.7689965935885072  0.38512737420170834  1.0000
  C   C52       1.0  0.32624240323537834  0.26899659400475523  0.11487262604976417  1.0000
  C   C53       1.0  0.24199680587427116  0.09868739009977646  0.8419200545315313  1.0000
  C   C54       1.0  0.25800319407680744  0.5986873902758637  0.6580799451631008  1.0000
  C   C55       1.0  0.7580031939429493  0.9013126096600629  0.15807994532405076  1.0000
  C   C56       1.0  0.7419968057404132  0.40131261007631086  0.3419200546924811  1.0000
  C   C57       1.0  0.4499667826805056  0.04556754391972607  0.3047575994083427  1.0000
  C   C58       1.0  0.05003321769110857  0.545567543503478  0.195242401043438  1.0000
  C   C59       1.0  0.5500332171367149  0.9544324564324485  0.6952424004472393  1.0000
  C   C60       1.0  0.9499667821261121  0.4544324562563612  0.804757598812144  1.0000
  C   C61       1.0  0.5826435327805793  0.06860214675632698  0.35713177836509147  1.0000
  C   C62       1.0  0.9173564678339654  0.568602146340079  0.14286822185174855  1.0000
  C   C63       1.0  0.4173564670366412  0.9313978535958475  0.6428682214904905  1.0000
  C   C64       1.0  0.08264353291443743  0.4313978534197603  0.8571317782041415  1.0000
  C   C65       1.0  0.4167271344601294  0.03013858490959813  0.17520941923616049  1.0000
  C   C66       1.0  0.08327286498030262  0.5301385850856853  0.32479058101531205  1.0000
  C   C67       1.0  0.5832728653570912  0.9698614148502412  0.8247905806194213  1.0000
  C   C68       1.0  0.9167271348317435  0.46986141467415393  0.6752094196879412  1.0000
  N   N1        1.0  0.13537033209583232  0.7614651255358845  0.9408258051384275  1.0000
  N   N2        1.0  0.36462966785524625  0.2614651253597972  0.5591741945562044  1.0000
  N   N3        1.0  0.8646296686525705  0.2385348748162901  0.05917419491746252  1.0000
  N   N4        1.0  0.6353703319619743  0.7385348749923772  0.4408258052993776  1.0000
  O   O1        1.0  0.17966280948655602  0.06976523670355605  0.6182023820406417  1.0000
  O   O2        1.0  0.32033719045934816  0.5697652368796433  0.8817976185016616  1.0000
  O   O3        1.0  0.8203371903306647  0.9302347630562832  0.38179761781494026  1.0000
  O   O4        1.0  0.6796628102890545  0.4302347634725312  0.1182023815542285  1.0000
  O   O5        1.0  0.16184839943524848  0.20851766176848582  0.6900576911029621  1.0000
  O   O6        1.0  0.3381516005158301  0.7085176619445731  0.8099423085916698  1.0000
  O   O7        1.0  0.8381516013131544  0.7914823379913535  0.309942308952928  1.0000
  O   O8        1.0  0.6618483993013904  0.2914823384076014  0.190057691263912  1.0000
  O   O9        1.0  0.970847239216859  0.2303363513850516  0.8243991527181673  1.0000
  O   O10       1.0  0.5291527609719757  0.730336351561139  0.6756008475891953  1.0000
  O   O11       1.0  0.0291527606003616  0.7696636483747876  0.17560084713741456  1.0000
  O   O12       1.0  0.470847239776427  0.2696636481987004  0.3243991524666949  1.0000
  O   O13       1.0  0.7931568260375521  0.13397834156708188  0.7765607768412398  1.0000
  O   O14       1.0  0.706843174156457  0.6339783411508338  0.7234392226184516  1.0000
  O   O15       1.0  0.2068431737796685  0.8660216587850927  0.22343922301434208  1.0000
  O   O16       1.0  0.29315682566076345  0.3660216586090054  0.27656077723713046  1.0000
  O   O17       1.0  0.37128012952468337  0.04071886942101865  0.36406917978410536  1.0000
  O   O18       1.0  0.12871986991574857  0.5407188695971059  0.13593082046736718  1.0000
  O   O19       1.0  0.6287198702925372  0.9592811303388206  0.6359308200714765  1.0000
  O   O20       1.0  0.8712801298962976  0.45928113016273336  0.8640691802358861  1.0000
  F   F1        1.0  0.9124272484854484  0.271543953065738  0.5718571217505256  1.0000
  F   F2        1.0  0.5875727507773785  0.7715439532418253  0.9281428775088576  1.0000
  F   F3        1.0  0.087572751331772  0.7284560466941012  0.42814287810505625  1.0000
  F   F4        1.0  0.4124272490398422  0.22845604711034928  0.07185712234672444  1.0000
  F   F5        1.0  0.7443414041825533  0.28386932415362925  0.6418658529486924  1.0000
  F   F6        1.0  0.7556585950802737  0.7838693243297166  0.8581341463106907  1.0000
  F   F7        1.0  0.25565859563466725  0.71613067560621  0.35813414690688955  1.0000
  F   F8        1.0  0.24434140473694696  0.21613067602245803  0.14186585354489115  1.0000
  F   F9        1.0  0.7635240995956223  0.18286833062139446  0.5290593664170504  1.0000
  F   F10       1.0  0.7364759005932126  0.6828683302051465  0.9709406338903122  1.0000
  F   F11       1.0  0.23647590022159826  0.8171316697307801  0.47094063343853143  1.0000
  F   F12       1.0  0.2635240992240081  0.31713166955469285  0.029059365965269757  1.0000
  F   F13       1.0  0.24570661258515514  0.019649292569737603  0.8633530670836237  1.0000
  F   F14       1.0  0.25429338736592344  0.5196492921534897  0.6366469326110084  1.0000
  F   F15       1.0  0.7542933881632476  0.9803507077824369  0.13664693297226646  1.0000
  F   F16       1.0  0.7457066124512971  0.4803507076063497  0.36335306724457356  1.0000
  F   F17       1.0  0.3606737032813271  0.12276653764561923  0.8429133867470598  1.0000
  F   F18       1.0  0.13932629666975155  0.6227665378217064  0.6570866129475721  1.0000
  F   F19       1.0  0.6393262965358935  0.87723346211422  0.15708661310852207  1.0000
  F   F20       1.0  0.8606737031474689  0.3772334625304681  0.3429133869080098  1.0000
  F   F21       1.0  0.20514032977017221  0.13549778691559974  0.9303184305921518  1.0000
  F   F22       1.0  0.29485967018090636  0.635497787091687  0.5696815691024804  1.0000
  F   F23       1.0  0.7948596700470485  0.8645022128442396  0.06968156926343029  1.0000
  F   F24       1.0  0.7051403296363142  0.3645022126681523  0.43031843075310167  1.0000
  S   S1        1.0  0.1371396017981029  0.12443817465125463  0.6964502065990051  1.0000
  S   S2        1.0  0.36286039815297566  0.6244381748273419  0.8035497930956269  1.0000
  S   S3        1.0  0.8628603980191176  0.8755618251085847  0.30354979325657677  1.0000
  S   S4        1.0  0.6371396016642449  0.3755618249324974  0.19645020675995506  1.0000
  S   S5        1.0  0.9007240538954275  0.1714845545995201  0.7469280025132692  1.0000
  S   S6        1.0  0.599275945362225  0.6714845547756074  0.7530719975937853  1.0000
  S   S7        1.0  0.09927594592179302  0.8285154451603192  0.2530719973423127  1.0000
  S   S8        1.0  0.4007240544549956  0.32851544557656714  0.24692800226179668  1.0000
