data_image0
_chemical_formula_structural       H60C24N8O16I4
_chemical_formula_sum              "H60 C24 N8 O16 I4"
_cell_length_a       11.502896156268188
_cell_length_b       5.296128440169394
_cell_length_c       19.180509232462445
_cell_angle_alpha    90.0
_cell_angle_beta     103.38821475399291
_cell_angle_gamma    90.0

_space_group_name_H-M_alt    "P 1"
_space_group_IT_number       1

loop_
  _space_group_symop_operation_xyz
  'x, y, z'

loop_
  _atom_site_type_symbol
  _atom_site_label
  _atom_site_symmetry_multiplicity
  _atom_site_fract_x
  _atom_site_fract_y
  _atom_site_fract_z
  _atom_site_occupancy
  H   H1        1.0  0.6081082001551014  0.03188477052769493  0.38386776961768887  1.0000
  H   H2        1.0  0.39189179960957976  0.5318847705117027  0.6161322298937175  1.0000
  H   H3        1.0  0.28003575965583  0.5204134890489637  0.2607890944764121  1.0000
  H   H4        1.0  0.7199642403152817  0.020413489064955926  0.7392109055709215  1.0000
  H   H5        1.0  0.20932467946019676  0.6578513020142246  0.3204913298826321  1.0000
  H   H6        1.0  0.7906753205109149  0.1578513020302168  0.6795086701647015  1.0000
  H   H7        1.0  0.21210075502031103  0.34115780808786617  0.31433323786635115  1.0000
  H   H8        1.0  0.78789924474437  0.8411578080718739  0.6856667616450554  1.0000
  H   H9        1.0  0.4265832207676228  0.6666633409455364  0.35719367183108053  1.0000
  H   H10       1.0  0.5734167792034889  0.16666334096152854  0.642806328216253  1.0000
  H   H11       1.0  0.44490268365409674  0.5077654309898095  0.48072287442604705  1.0000
  H   H12       1.0  0.5550973163170149  0.007765431005801775  0.5192771256212866  1.0000
  H   H13       1.0  0.3101172271001286  0.33136390663967147  0.4539557361917175  1.0000
  H   H14       1.0  0.6898827726645526  0.8313639066236793  0.546044263319689  1.0000
  H   H15       1.0  0.30631868444463706  0.6678828997370133  0.45163376810552935  1.0000
  H   H16       1.0  0.6936813155264746  0.16788289975300555  0.5483662319418043  1.0000
  H   H17       1.0  0.8177281685575486  0.5017719962839502  0.259317515299428  1.0000
  H   H18       1.0  0.182271831413563  0.0017719962999424225  0.7406824847479055  1.0000
  H   H19       1.0  0.9105921658032545  0.3324736172644032  0.32411141970395657  1.0000
  H   H20       1.0  0.0894078341678572  0.832473617248411  0.6758885803433771  1.0000
  H   H21       1.0  0.9270342561047769  0.6473123884228059  0.3205496362798437  1.0000
  H   H22       1.0  0.0729657438663348  0.14731238843879818  0.67945036376749  1.0000
  H   H23       1.0  0.707519314058687  0.39887216555730537  0.3436762752384384  1.0000
  H   H24       1.0  0.2924806859124247  0.8988721655413132  0.6563237248088952  1.0000
  H   H25       1.0  0.7775979057252098  0.5119828947942345  0.47177945489791234  1.0000
  H   H26       1.0  0.2224020942459017  0.011982894810226729  0.5282205451494213  1.0000
  H   H27       1.0  0.9157507568265287  0.6248273049613121  0.4570327759057964  1.0000
  H   H28       1.0  0.08424924314458306  0.12482730497730435  0.5429672241415373  1.0000
  H   H29       1.0  0.8784555195445434  0.29798830368802814  0.4454259237280354  1.0000
  H   H30       1.0  0.12154448042656817  0.797988303672036  0.5545740763192982  1.0000
  H   H31       1.0  0.46557176928403665  0.02238837696999047  0.24443354675104312  1.0000
  H   H32       1.0  0.5344282306870749  0.5223883769539983  0.7555664532962905  1.0000
  H   H33       1.0  0.5335991375155621  0.16360977642231908  0.184236096126589  1.0000
  H   H34       1.0  0.4664008624555496  0.6636097764063269  0.8157639039207447  1.0000
  H   H35       1.0  0.5316490539527824  0.8470421574323671  0.1894041975934647  1.0000
  H   H36       1.0  0.4683509460183293  0.34704215744835926  0.8105958024538689  1.0000
  H   H37       1.0  0.31482777705861886  0.1660710214897788  0.1511066889680962  1.0000
  H   H38       1.0  0.6851722229124928  0.6660710214737866  0.8488933110792374  1.0000
  H   H39       1.0  0.29350816578928945  0.01624630916187674  0.025963860841414912  1.0000
  H   H40       1.0  0.7064918350512844  0.5162463091458845  0.9740361392062196  1.0000
  H   H41       1.0  0.43485794429388497  0.8633340244017489  0.04965561948545361  1.0000
  H   H42       1.0  0.5651420554707962  0.3633340244177412  0.9503443800259529  1.0000
  H   H43       1.0  0.42584350038622526  0.19832509952617483  0.054274786492373786  1.0000
  H   H44       1.0  0.5741564993784558  0.6983250995101826  0.9457252130190327  1.0000
  H   H45       1.0  0.9166822529791776  0.0032066310686862456  0.23551873722229041  1.0000
  H   H46       1.0  0.08331774699193405  0.503206631052694  0.7644812628250431  1.0000
  H   H47       1.0  0.8251266474076399  0.836976702902285  0.1695634083512836  1.0000
  H   H48       1.0  0.17487335256347195  0.3369767029182771  0.83043659169605  1.0000
  H   H49       1.0  0.8110231044255314  0.15205429005310206  0.17297835656042784  1.0000
  H   H50       1.0  0.18897689554558023  0.6520542900371099  0.8270216434869058  1.0000
  H   H51       1.0  0.03073746128836966  0.8927552425161299  0.15374613261895984  1.0000
  H   H52       1.0  0.9692625386827419  0.3927552425321222  0.8462538674283737  1.0000
  H   H53       1.0  0.9710896224053144  0.9908379978473781  0.026447536166011903  1.0000
  H   H54       1.0  0.02891037756579709  0.49083799786337035  0.9735524638813217  1.0000
  H   H55       1.0  0.8381166963528586  0.1453549944448435  0.035696180594211556  1.0000
  H   H56       1.0  0.16188330361825312  0.6453549944288514  0.964303819453122  1.0000
  H   H57       1.0  0.8548158143465114  0.813025274716011  0.04978288703475842  1.0000
  H   H58       1.0  0.1451841856246004  0.3130252747320032  0.9502171130125753  1.0000
  H   H59       1.0  0.13944763122224108  0.5238168317366693  0.11824432518858227  1.0000
  H   H60       1.0  0.8605523696183329  0.023816831752661492  0.8817556748590522  1.0000
  C   C1        1.0  0.44595807130239695  0.264528186169743  0.352809207158992  1.0000
  C   C2        1.0  0.5540419286687147  0.7645281861537508  0.6471907928883417  1.0000
  C   C3        1.0  0.37665103204257394  0.49816971393458376  0.36675202314327776  1.0000
  C   C4        1.0  0.6233489679285377  0.9981697139185916  0.6332479769040558  1.0000
  C   C5        1.0  0.3576980634653793  0.5009916753293724  0.4427996736770746  1.0000
  C   C6        1.0  0.6423019365057324  0.0009916753453645503  0.5572003263702591  1.0000
  C   C7        1.0  0.7236413001557921  0.799749189969518  0.34738799787188634  1.0000
  C   C8        1.0  0.27635869981531963  0.2997491899855103  0.6526120021754473  1.0000
  C   C9        1.0  0.7796627621466049  0.5373099674880587  0.3604721243467992  1.0000
  C   C10       1.0  0.22033723782450676  0.037309967504050925  0.6395278757005344  1.0000
  C   C11       1.0  0.8422936074293264  0.4906084093981856  0.4384703631677831  1.0000
  C   C12       1.0  0.15770639254178528  0.9906084093821934  0.5615296368795505  1.0000
  C   C13       1.0  0.2991797729109669  0.7641602909975038  0.1520064145527074  1.0000
  C   C14       1.0  0.7008202268537141  0.26416029101349603  0.8479935849586991  1.0000
  C   C15       1.0  0.36597543017925155  0.0029903466615121316  0.13925906019471365  1.0000
  C   C16       1.0  0.6340245697918601  0.5029903466455199  0.8607409398526199  1.0000
  C   C17       1.0  0.3817224554921739  0.021033642076179904  0.06277919275205143  1.0000
  C   C18       1.0  0.6182775444789377  0.5210336420601877  0.9372208072952821  1.0000
  C   C19       1.0  0.0192253755915947  0.2955998646343115  0.15076223516906942  1.0000
  C   C20       1.0  0.9807746241730865  0.7955998646183192  0.8492377643423371  1.0000
  C   C21       1.0  0.9610330214488522  0.03580511729317781  0.13601157111246653  1.0000
  C   C22       1.0  0.038966978522259485  0.5358051172771856  0.8639884289348669  1.0000
  C   C23       1.0  0.9020289243831409  0.9947562072024626  0.05716291305614532  1.0000
  C   C24       1.0  0.09797107558797087  0.49475620721845476  0.9428370869911884  1.0000
  N   N1        1.0  0.2608443198129611  0.5045246542235552  0.31195056209224764  1.0000
  N   N2        1.0  0.7391556810276129  0.004524654239547399  0.6880494379553869  1.0000
  N   N3        1.0  0.8639059458892516  0.5018166402163381  0.31297520075346613  1.0000
  N   N4        1.0  0.13609405408185998  0.0018166402323302176  0.6870247992938676  1.0000
  N   N5        1.0  0.48288884055703  0.009291617557225644  0.19282636174849757  1.0000
  N   N6        1.0  0.5171111602835439  0.5092916175412334  0.8071736382991369  1.0000
  N   N7        1.0  0.8731178291176548  0.004562950138578411  0.18142967794693346  1.0000
  N   N8        1.0  0.12688217172291916  0.5045629501225862  0.818570322100701  1.0000
  O   O1        1.0  0.5542712360254325  0.25527740599069715  0.3888049870332746  1.0000
  O   O2        1.0  0.4457287639456791  0.7552774059747049  0.611195013014059  1.0000
  O   O3        1.0  0.39375330716139284  0.10084232397938558  0.30869802594042073  1.0000
  O   O4        1.0  0.6062466928097189  0.6008423239633933  0.691301974106913  1.0000
  O   O5        1.0  0.6512043331295571  0.8431232230193383  0.389116719926888  1.0000
  O   O6        1.0  0.348795666635124  0.3431232230353305  0.6108832795845185  1.0000
  O   O7        1.0  0.7462314883616816  0.9455052887349985  0.3014497667637375  1.0000
  O   O8        1.0  0.2537685116094299  0.44550528875099077  0.698550233283596  1.0000
  O   O9        1.0  0.1920855173163877  0.7491309991479553  0.11455264099657791  1.0000
  O   O10       1.0  0.807914482654724  0.24913099916394754  0.8854473590507558  1.0000
  O   O11       1.0  0.351737063127542  0.6034414735413367  0.19703794969429989  1.0000
  O   O12       1.0  0.6482629368435696  0.10344147355732891  0.8029620503530337  1.0000
  O   O13       1.0  0.09700164372555187  0.33466035992573295  0.11213678389583884  1.0000
  O   O14       1.0  0.9029983562455599  0.8346603599097409  0.8878632161514949  1.0000
  O   O15       1.0  0.9926592709081551  0.4444474027757366  0.19468666449045216  1.0000
  O   O16       1.0  0.0073407288565260605  0.9444474027597444  0.8053133350209544  1.0000
  I   I1        1.0  0.07456931483840556  0.9957617190702657  0.3557143023292191  1.0000
  I   I2        1.0  0.9254306851327061  0.4957617190862579  0.6442856977181145  1.0000
  I   I3        1.0  0.6603952978945851  0.5009449827306574  0.14161409197600155  1.0000
  I   I4        1.0  0.33960470207652665  0.0009449827466495366  0.8583859080713322  1.0000
