data_image0
_chemical_formula_structural       H60C24N8O16Br4
_chemical_formula_sum              "H60 C24 N8 O16 Br4"
_cell_length_a       5.16844462799252
_cell_length_b       18.695334714575807
_cell_length_c       11.070961308293521
_cell_angle_alpha    90.0
_cell_angle_beta     90.31608115775026
_cell_angle_gamma    90.0

_space_group_name_H-M_alt    "P 1"
_space_group_IT_number       1

loop_
  _space_group_symop_operation_xyz
  'x, y, z'

loop_
  _atom_site_type_symbol
  _atom_site_label
  _atom_site_symmetry_multiplicity
  _atom_site_fract_x
  _atom_site_fract_y
  _atom_site_fract_z
  _atom_site_occupancy
  H   H1        1.0  0.4871589690212198  0.40812620241836217  0.737714908376246  1.0000
  H   H2        1.0  0.5128410300072058  0.9081262025634302  0.26228509081437823  1.0000
  H   H3        1.0  0.3380591159009342  0.46369577289468156  0.8378637746705472  1.0000
  H   H4        1.0  0.6619408831368238  0.9636957725048568  0.16213622542335454  1.0000
  H   H5        1.0  0.6630698179569126  0.4585518109668417  0.8368789799668929  1.0000
  H   H6        1.0  0.3369301810808454  0.9585518111119097  0.16312102012700894  1.0000
  H   H7        1.0  0.33916422982484357  0.508849709044423  0.6319971594937489  1.0000
  H   H8        1.0  0.6608357692129143  0.008849708899354894  0.3680028406001528  1.0000
  H   H9        1.0  0.5110206682377487  0.6309125854165071  0.6789323208087833  1.0000
  H   H10       1.0  0.4889793327348342  0.13091258527143904  0.32106767928574476  1.0000
  H   H11       1.0  0.6717720354822075  0.5969103206961868  0.8096892952549112  1.0000
  H   H12       1.0  0.3282279654903753  0.09691032055111877  0.19031070483961682  1.0000
  H   H13       1.0  0.3271683500512317  0.5967637156718936  0.8017580278276394  1.0000
  H   H14       1.0  0.6728316509120189  0.09676371552682556  0.19824197136361113  1.0000
  H   H15       1.0  0.9924603864585193  0.5421891586726797  0.46443455435732933  1.0000
  H   H16       1.0  0.007539614514063572  0.042189158527611646  0.5355654457371987  1.0000
  H   H17       1.0  0.5139609573508124  0.41728183416356707  0.1910598496464123  1.0000
  H   H18       1.0  0.4860390416869455  0.9172818337737422  0.8089401504474893  1.0000
  H   H19       1.0  0.680966984223596  0.480803882745779  0.11516545882690585  1.0000
  H   H20       1.0  0.3190330167489868  0.9808038828908471  0.8848345412676221  1.0000
  H   H21       1.0  0.3563951192368877  0.47676895685909854  0.10204416647338013  1.0000
  H   H22       1.0  0.6436048798008702  0.9767689570041665  0.8979558336205216  1.0000
  H   H23       1.0  0.6349229339222604  0.5050304300055549  0.332709185259478  1.0000
  H   H24       1.0  0.3650770670503225  0.005030429860486928  0.66729081483505  1.0000
  H   H25       1.0  0.49968548662958406  0.6312289231601362  0.3085121145105924  1.0000
  H   H26       1.0  0.5003145143336665  0.13122892354996096  0.6914878846806581  1.0000
  H   H27       1.0  0.36294740151657306  0.6130835165558075  0.16414297323055857  1.0000
  H   H28       1.0  0.6370525975118525  0.11308351641073944  0.8358570259600657  1.0000
  H   H29       1.0  0.7039218924354101  0.6058669792720532  0.18760785879197828  1.0000
  H   H30       1.0  0.29607810853717276  0.10586697912698526  0.8123921413025498  1.0000
  H   H31       1.0  0.9878496813252942  0.39619289641416094  0.5318554385401723  1.0000
  H   H32       1.0  0.012150317712463747  0.8961928965592291  0.46814456155372947  1.0000
  H   H33       1.0  0.8455939765989394  0.34091237024127347  0.42816498485347304  1.0000
  H   H34       1.0  0.15440602243881843  0.8409123703863415  0.5718350152404287  1.0000
  H   H35       1.0  0.1708513433924841  0.34606604742710534  0.43588185860515005  1.0000
  H   H36       1.0  0.8291486556452737  0.8460660475721734  0.5641181414887517  1.0000
  H   H37       1.0  0.8315836608198951  0.2960717261555374  0.6337189482706036  1.0000
  H   H38       1.0  0.1684163401526877  0.7960717257657126  0.3662810518239244  1.0000
  H   H39       1.0  0.9991962167883296  0.17421303387848436  0.5923957057799197  1.0000
  H   H40       1.0  0.0008037822494282351  0.6742130340235524  0.407604294313982  1.0000
  H   H41       1.0  0.18161768316091417  0.2058653059043306  0.4675949975976666  1.0000
  H   H42       1.0  0.8183823158675113  0.7058653060493987  0.5324050015929577  1.0000
  H   H43       1.0  0.8364278531105018  0.20754195253722355  0.46253366332276824  1.0000
  H   H44       1.0  0.16357214786208102  0.7075419521473988  0.5374663367717597  1.0000
  H   H45       1.0  0.47219709284933603  0.2611010770614468  0.8147671013806478  1.0000
  H   H46       1.0  0.5278029061884218  0.7611010772065149  0.1852328987132539  1.0000
  H   H47       1.0  0.009076254806021991  0.39087403042335983  0.07514369874517951  1.0000
  H   H48       1.0  0.9909237461665608  0.890874030033535  0.9248563013493485  1.0000
  H   H49       1.0  0.1826988849121297  0.32924619986616077  0.15367634454663787  1.0000
  H   H50       1.0  0.8173011141256282  0.8292462000112288  0.846323655547264  1.0000
  H   H51       1.0  0.8591331006680383  0.3330279904079945  0.16963215855705807  1.0000
  H   H52       1.0  0.14086689836971963  0.8330279905530626  0.8303678415368436  1.0000
  H   H53       1.0  0.1211946541436084  0.2997610091265572  0.9382037827103991  1.0000
  H   H54       1.0  0.8788053468289746  0.7997610092716252  0.06179621738412896  1.0000
  H   H55       1.0  0.989351183437453  0.17354504637300988  0.9744513849496431  1.0000
  H   H56       1.0  0.010648815600304787  0.673545046518078  0.025548615144258716  1.0000
  H   H57       1.0  0.86852390188887  0.19674863682072669  0.11960584689465682  1.0000
  H   H58       1.0  0.13147609908371288  0.6967486369657948  0.8803941531998712  1.0000
  H   H59       1.0  0.2063619575262169  0.20357449963346935  0.08905202541988327  1.0000
  H   H60       1.0  0.7936380434463659  0.7035744997785375  0.9109479746746448  1.0000
  C   C1        1.0  0.7500086866545621  0.5044779290657377  0.6131724274877159  1.0000
  C   C2        1.0  0.24999131238319588  0.004477928920669742  0.3868275726061858  1.0000
  C   C3        1.0  0.509483958143105  0.5159776552424712  0.6905674713656687  1.0000
  C   C4        1.0  0.49051604282947786  0.015977655097403138  0.3094325287288593  1.0000
  C   C5        1.0  0.5047525203109681  0.5896989713377349  0.7491680863964141  1.0000
  C   C6        1.0  0.4952474787174574  0.08969897172755965  0.25083191279421024  1.0000
  C   C7        1.0  0.22212387442129983  0.5050947802842939  0.32737517549545425  1.0000
  C   C8        1.0  0.777876126551283  0.005094780674118632  0.6726248245990738  1.0000
  C   C9        1.0  0.4825022594632307  0.5193885923010243  0.2675684127403622  1.0000
  C   C10       1.0  0.5174977415093522  0.019388592155956192  0.7324315873541657  1.0000
  C   C11       1.0  0.513788350934025  0.5969876426603062  0.22878973584871223  1.0000
  C   C12       1.0  0.486211650038558  0.09698764305013094  0.7712102642458156  1.0000
  C   C13       1.0  0.24193618755209376  0.3000039547634951  0.6606557329483204  1.0000
  C   C14       1.0  0.758063813420489  0.8000039549085631  0.3393442671462076  1.0000
  C   C15       1.0  0.006270244527628716  0.28866636315382227  0.5789625127616619  1.0000
  C   C16       1.0  0.9937297545101292  0.7886663627639975  0.4210374873322399  1.0000
  C   C17       1.0  0.006447005775450554  0.21472828014521517  0.5212082106414975  1.0000
  C   C18       1.0  0.9935529951877999  0.7147282797553904  0.478791788549753  1.0000
  C   C19       1.0  0.7099832534115232  0.29970640619937855  0.9476785886890572  1.0000
  C   C20       1.0  0.29001674756105955  0.7997064063444466  0.05232141140547092  1.0000
  C   C21       1.0  0.9743477641798145  0.2868750675974025  0.006175575846988522  1.0000
  C   C22       1.0  0.025652234857943493  0.7868750677424705  0.9938244242469132  1.0000
  C   C23       1.0  0.011781067974424868  0.21045848443314563  0.050428518861273516  1.0000
  C   C24       1.0  0.988218932998158  0.7104584845782137  0.9495714812332544  1.0000
  N   N1        1.0  0.49878185287658805  0.4578224664427573  0.7827604095925478  1.0000
  N   N2        1.0  0.5012181480959949  0.9578224665878253  0.21723959050198038  1.0000
  N   N3        1.0  0.5110473260351113  0.4703945077347891  0.16242486306711126  1.0000
  N   N4        1.0  0.48895267299331424  0.9703945078798571  0.837575136123513  1.0000
  N   N5        1.0  0.002685571589666689  0.3467602404008145  0.48642529003003504  1.0000
  N   N6        1.0  0.9973144293829161  0.8467602400109897  0.513574710064493  1.0000
  N   N7        1.0  0.009466943724374788  0.33840821716165514  0.10741220782907256  1.0000
  N   N8        1.0  0.9905330572482081  0.8384082173067232  0.8925877922654555  1.0000
  O   O1        1.0  0.7688811441697869  0.5470347071147396  0.5232848495905227  1.0000
  O   O2        1.0  0.231118856802796  0.047034706969671485  0.47671515050400537  1.0000
  O   O3        1.0  0.9079089907958512  0.45578383163991076  0.6415904428957939  1.0000
  O   O4        1.0  0.09209101017673178  0.9557838312500861  0.358409557198734  1.0000
  O   O5        1.0  0.1840806540303506  0.5474876131540948  0.41876836214430857  1.0000
  O   O6        1.0  0.8159193450074074  0.04748761300902678  0.5812316379495932  1.0000
  O   O7        1.0  0.07175414294650181  0.45791925583046433  0.29012974857672696  1.0000
  O   O8        1.0  0.9282458580260811  0.9579192554406395  0.7098702515178011  1.0000
  O   O9        1.0  0.24893126773908572  0.25963910965528475  0.753880928426106  1.0000
  O   O10       1.0  0.7510687332334971  0.7596391098003528  0.24611907166842217  1.0000
  O   O11       1.0  0.40893538124889217  0.34605563413400453  0.6317697395700488  1.0000
  O   O12       1.0  0.5910646197236908  0.8460556342790726  0.3682302605244792  1.0000
  O   O13       1.0  0.6612233604194175  0.2535213090517562  0.8627391799610742  1.0000
  O   O14       1.0  0.338776640543833  0.7535213086619315  0.13726081923017627  1.0000
  O   O15       1.0  0.5670908047858083  0.3497139377185174  0.9797685439607227  1.0000
  O   O16       1.0  0.43290919618677465  0.8497139378635854  0.0202314561338053  1.0000
  Br  Br1       1.0  0.011983494561915243  0.5008720144870894  0.9766314605843145  1.0000
  Br  Br2       1.0  0.9880165064106675  0.0008720143420213646  0.02336853951021355  1.0000
  Br  Br3       1.0  0.5152564879893461  0.3058674079550839  0.291808851999422  1.0000
  Br  Br4       1.0  0.48474351104841173  0.8058674081001519  0.7081911480944798  1.0000
