data_image0
_chemical_formula_structural       H80C92F8P4Br4I4
_chemical_formula_sum              "H80 C92 F8 P4 Br4 I4"
_cell_length_a       10.746359998845671
_cell_length_b       11.676995551257605
_cell_length_c       16.939243988788245
_cell_angle_alpha    90.0
_cell_angle_beta     92.52822557480106
_cell_angle_gamma    90.0

_space_group_name_H-M_alt    "P 1"
_space_group_IT_number       1

loop_
  _space_group_symop_operation_xyz
  'x, y, z'

loop_
  _atom_site_type_symbol
  _atom_site_label
  _atom_site_symmetry_multiplicity
  _atom_site_fract_x
  _atom_site_fract_y
  _atom_site_fract_z
  _atom_site_occupancy
  H   H1        1.0  0.43040892650346413  0.1605613851414097  0.2625071039975658  1.0000
  H   H2        1.0  0.06959107344278735  0.6605613855157524  0.2374928962066207  1.0000
  H   H3        1.0  0.5695910733890388  0.839438614750891  0.7374928964108073  1.0000
  H   H4        1.0  0.9304089264102007  0.33943861523293295  0.7625071036108331  1.0000
  H   H5        1.0  0.5302299277160769  0.2796754384006149  0.249617509730863  1.0000
  H   H6        1.0  0.9697700725548847  0.7796754379185729  0.2503824899741379  1.0000
  H   H7        1.0  0.4697700721369112  0.7203245623480704  0.7503824900865907  1.0000
  H   H8        1.0  0.030229928228719248  0.2203245619737278  0.7496175098443146  1.0000
  H   H9        1.0  0.34528873773589097  0.2910109869515214  0.15415027274695858  1.0000
  H   H10       1.0  0.15471126221036055  0.7910109873258641  0.34584972745722803  1.0000
  H   H11       1.0  0.6547112621170972  0.7089890129407793  0.8458497270704952  1.0000
  H   H12       1.0  0.8452887376821424  0.2089890134228213  0.6541502729511451  1.0000
  H   H13       1.0  0.3793712768854485  0.15409076351032905  0.11539189507647969  1.0000
  H   H14       1.0  0.12062872306080301  0.6540907630282871  0.38460810512770693  1.0000
  H   H15       1.0  0.6206287230070544  0.8459092363819716  0.8846081053318935  1.0000
  H   H16       1.0  0.8793712777228009  0.3459092368640136  0.6153918946907456  1.0000
  H   H17       1.0  0.4818154565606359  0.2712005443608255  0.10057812682938957  1.0000
  H   H18       1.0  0.018184543385615606  0.7712005447351682  0.399421873374797  1.0000
  H   H19       1.0  0.5181845432923523  0.7287994555314751  0.8994218729880641  1.0000
  H   H20       1.0  0.9818154565068875  0.2287994551571325  0.6005781270335762  1.0000
  H   H21       1.0  0.6269737793527378  0.12615834642853338  0.03471356631154401  1.0000
  H   H22       1.0  0.873026219987608  0.6261583468028761  0.465286433392458  1.0000
  H   H23       1.0  0.3730262205002503  0.8738416534637673  0.9652864335059096  1.0000
  H   H24       1.0  0.12697377986538017  0.3738416530894246  0.5347135664249957  1.0000
  H   H25       1.0  0.7670148901243224  0.23096924445685277  0.9474382347646491  1.0000
  H   H26       1.0  0.7329851096749171  0.7309692439748107  0.5525617652569914  1.0000
  H   H27       1.0  0.23298510972866568  0.7690307554354479  0.05256176505280478  1.0000
  H   H28       1.0  0.26701489021758584  0.26903075591748987  0.44743823515138187  1.0000
  H   H29       1.0  0.9470681989921431  0.33893897558038794  0.004501385910391466  1.0000
  H   H30       1.0  0.5529318013183333  0.8389389759547307  0.49549861438552883  1.0000
  H   H31       1.0  0.05293180086084503  0.6610610243119127  0.9954986139070624  1.0000
  H   H32       1.0  0.4470681995047854  0.16106102393757005  0.5045013860238431  1.0000
  H   H33       1.0  0.9903677622562159  0.34302095110146846  0.15011747396776157  1.0000
  H   H34       1.0  0.5096322380542605  0.8430209514758112  0.3498825263281588  1.0000
  H   H35       1.0  0.00963223763628707  0.6569790487908322  0.8498825264406117  1.0000
  H   H36       1.0  0.4903677617987276  0.1569790484164895  0.6501174734892949  1.0000
  H   H37       1.0  0.8503665606135283  0.24060394197010854  0.23878240892296423  1.0000
  H   H38       1.0  0.6496334396574331  0.7406039423444511  0.2612175907820367  1.0000
  H   H39       1.0  0.1496334392394597  0.7593960579221921  0.7612175908944895  1.0000
  H   H40       1.0  0.35036656019555495  0.25939605754784945  0.738782409035417  1.0000
  H   H41       1.0  0.5509210427164142  0.13311034017072995  0.3721885485402082  1.0000
  H   H42       1.0  0.9490789575940624  0.6331103396886879  0.12781145175571212  1.0000
  H   H43       1.0  0.44907895717608876  0.8668896597215707  0.627811451868165  1.0000
  H   H44       1.0  0.05092104229844076  0.3668896602036127  0.872188548652661  1.0000
  H   H45       1.0  0.661409441271821  0.07620299982936679  0.49878541276080596  1.0000
  H   H46       1.0  0.8385905580685248  0.5762030002037094  0.0012145869431960429  1.0000
  H   H47       1.0  0.3385905585811671  0.9237970000629339  0.5012145870566478  1.0000
  H   H48       1.0  0.16140944178446334  0.4237969996885912  0.9987854128742577  1.0000
  H   H49       1.0  0.8674350620478589  0.9872271141491065  0.49861772340757066  1.0000
  H   H50       1.0  0.6325649382231028  0.48722711377476385  0.001382276297430299  1.0000
  H   H51       1.0  0.1325649378051293  0.01277288574319417  0.5013822764098831  1.0000
  H   H52       1.0  0.3674350625605012  0.5127728861175368  0.9986177235210222  1.0000
  H   H53       1.0  0.9728906254028913  0.9563617542696823  0.3703306774661053  1.0000
  H   H54       1.0  0.5271093739374545  0.4563617547517244  0.1296693222378967  1.0000
  H   H55       1.0  0.027109374450096754  0.043638245622618255  0.6296693223513484  1.0000
  H   H56       1.0  0.47289062591553377  0.5436382459969609  0.8703306775795571  1.0000
  H   H57       1.0  0.8641671482802341  0.00935659001670452  0.2445339192751656  1.0000
  H   H58       1.0  0.6358328519907274  0.5093565895346626  0.25546608042983526  1.0000
  H   H59       1.0  0.13583285157275388  0.9906434107319808  0.755466080542288  1.0000
  H   H60       1.0  0.3641671478622608  0.4906434103576381  0.7445339193876185  1.0000
  H   H61       1.0  0.7196086125594664  0.9508860024190179  0.08711581127949931  1.0000
  H   H62       1.0  0.7803913867808794  0.4508860020446752  0.4128841884245027  1.0000
  H   H63       1.0  0.28039138729352175  0.04911399747328276  0.9128841885379544  1.0000
  H   H64       1.0  0.2196086130721087  0.5491139978476255  0.5871158113929511  1.0000
  H   H65       1.0  0.6480254672747802  0.759173590594137  0.04248197445608605  1.0000
  H   H66       1.0  0.8519745329961813  0.25917359107617904  0.4575180252489149  1.0000
  H   H67       1.0  0.35197453257820793  0.24082640929816368  0.9575180253613677  1.0000
  H   H68       1.0  0.14802546685680676  0.7408264088161216  0.5424819745685389  1.0000
  H   H69       1.0  0.4539812321067904  0.6748197458336227  0.09565860136312794  1.0000
  H   H70       1.0  0.046018767839461114  0.17481974545928003  0.4043413988410587  1.0000
  H   H71       1.0  0.5460187677857127  0.32518025405867795  0.9043413990452452  1.0000
  H   H72       1.0  0.953981232013527  0.8251802544330206  0.5956586009763951  1.0000
  H   H73       1.0  0.3365171277980092  0.781238679928889  0.19319783188839798  1.0000
  H   H74       1.0  0.16348287214824234  0.281238680410931  0.30680216831578866  1.0000
  H   H75       1.0  0.6634828720549789  0.2187613199634117  0.8068021679290557  1.0000
  H   H76       1.0  0.8365171277442608  0.7187613194813697  0.6931978320925846  1.0000
  H   H77       1.0  0.4083621487409026  0.9722576693777437  0.2400487219723277  1.0000
  H   H78       1.0  0.09163785120534891  0.472257669003401  0.2599512782318589  1.0000
  H   H79       1.0  0.5916378511120856  0.027742331370941654  0.7599512778451261  1.0000
  H   H80       1.0  0.9083621486871541  0.5277423308888997  0.7400487221765144  1.0000
  C   C1        1.0  0.052134142543119544  0.012987667875206704  0.07825705678844924  1.0000
  C   C2        1.0  0.4478658574031319  0.5129876673931647  0.4217429434157373  1.0000
  C   C3        1.0  0.9478658573493836  0.9870123320170939  0.9217429436199239  1.0000
  C   C4        1.0  0.5521341424498561  0.487012332499136  0.5782570564017163  1.0000
  C   C5        1.0  0.0844392654621192  0.0860841922554077  0.017521886415608135  1.0000
  C   C6        1.0  0.4155607344841323  0.5860841917733657  0.4824781137885784  1.0000
  C   C7        1.0  0.9155607344303838  0.9139158084932777  0.9824781139927651  1.0000
  C   C8        1.0  0.5844392653688558  0.41391580811893497  0.5175218860288753  1.0000
  C   C9        1.0  0.9667077264699243  0.9268832365731566  0.05892287302779549  1.0000
  C   C10       1.0  0.5332922738405522  0.4268832370551986  0.44107712726812487  1.0000
  C   C11       1.0  0.033292273383063904  0.07311676331914403  0.9410771267896583  1.0000
  C   C12       1.0  0.4667077269825665  0.573116762837102  0.5589228731412472  1.0000
  C   C13       1.0  0.4918939941477697  0.20233782736566505  0.2204960225658707  1.0000
  C   C14       1.0  0.008106005798481891  0.7023378277400077  0.27950397763831586  1.0000
  C   C15       1.0  0.5081060057447334  0.7976621725266355  0.7795039778425025  1.0000
  C   C16       1.0  0.9918939940545062  0.2976621730086776  0.7204960221791379  1.0000
  C   C17       1.0  0.42096600366733583  0.23085056238714427  0.1428444722313187  1.0000
  C   C18       1.0  0.0790339962789157  0.730850562761487  0.3571555279728679  1.0000
  C   C19       1.0  0.5790339961856522  0.7691494375051563  0.8571555275861351  1.0000
  C   C20       1.0  0.9209660036135874  0.2691494371308137  0.6428444724355052  1.0000
  C   C21       1.0  0.7301950011024894  0.17530871627158673  0.14273638995382298  1.0000
  C   C22       1.0  0.7698049982773713  0.6753087166459294  0.35726361034109855  1.0000
  C   C23       1.0  0.26980499879001363  0.8246912836207139  0.8572636104545502  1.0000
  C   C24       1.0  0.23019500157561684  0.32469128324637125  0.6427363894763551  1.0000
  C   C25       1.0  0.7065507952643585  0.17296047439039094  0.06035559111625223  1.0000
  C   C26       1.0  0.7934492050461179  0.6729604739083489  0.4396444091796681  1.0000
  C   C27       1.0  0.29344920458862966  0.8270395255019096  0.9396444087012016  1.0000
  C   C28       1.0  0.20655079484638503  0.3270395259839517  0.560355591228705  1.0000
  C   C29       1.0  0.7852874463306647  0.23142634491360725  0.011184352320611095  1.0000
  C   C30       1.0  0.7147125539402969  0.7314263444315653  0.4888156473843898  1.0000
  C   C31       1.0  0.21471255445293913  0.7685736549786935  0.9888156474978416  1.0000
  C   C32       1.0  0.2852874459126913  0.2685736554607354  0.5111843524330639  1.0000
  C   C33       1.0  0.8869644779129615  0.2924601259809678  0.04358873335310632  1.0000
  C   C34       1.0  0.6130355223975149  0.7924601263553105  0.45641126694281403  1.0000
  C   C35       1.0  0.11303552197954149  0.7075398739113328  0.956411267055267  1.0000
  C   C36       1.0  0.3869644784256039  0.20753987439337482  0.5435887334665581  1.0000
  C   C37       1.0  0.9106070680924908  0.2955443242956723  0.125220805321703  1.0000
  C   C38       1.0  0.5893929322179859  0.7955443238136302  0.37477919497421736  1.0000
  C   C39       1.0  0.08939293180001241  0.7044556755966284  0.8747791950866701  1.0000
  C   C40       1.0  0.41060706763500227  0.2044556760786704  0.6252208048432365  1.0000
  C   C41       1.0  0.8320303587405142  0.23770732872301711  0.1750600823523194  1.0000
  C   C42       1.0  0.6679696405998314  0.7377073282409751  0.32493991735168265  1.0000
  C   C43       1.0  0.16796964111247373  0.7622926711692835  0.8249399174651343  1.0000
  C   C44       1.0  0.33203035925315677  0.2622926716513255  0.6750600824657712  1.0000
  C   C45       1.0  0.7012847751660468  0.07637472636563185  0.3001862145948809  1.0000
  C   C46       1.0  0.7987152251049148  0.5763747258835898  0.19981378511012005  1.0000
  C   C47       1.0  0.2987152246869414  0.9236252735266688  0.6998137852225729  1.0000
  C   C48       1.0  0.20128477474807333  0.4236252740087108  0.8001862147073336  1.0000
  C   C49       1.0  0.6435062944589842  0.09543319812946087  0.37162173793596043  1.0000
  C   C50       1.0  0.8564937058119774  0.5954331976474189  0.1283782617690405  1.0000
  C   C51       1.0  0.35649370539400393  0.9045668017628398  0.6283782618814934  1.0000
  C   C52       1.0  0.1435062940410107  0.4045668022448818  0.8716217380484133  1.0000
  C   C53       1.0  0.7047218625259586  0.06325892792863531  0.44246783003662077  1.0000
  C   C54       1.0  0.7952781377450031  0.563258928302978  0.05753216966838006  1.0000
  C   C55       1.0  0.2952781382576454  0.9367410719636654  0.5575321697818317  1.0000
  C   C56       1.0  0.2047218621079851  0.43674107244570737  0.9424678301490738  1.0000
  C   C57       1.0  0.8224217412314929  0.012582199706685388  0.44234094806663393  1.0000
  C   C58       1.0  0.6775782581483678  0.5125821992246434  0.05765905222828754  1.0000
  C   C59       1.0  0.17757825866101004  0.9874178001856153  0.5576590523417392  1.0000
  C   C60       1.0  0.3224217417046204  0.4874178006676573  0.9423409475891662  1.0000
  C   C61       1.0  0.8798596590102741  0.9934769041468547  0.3711021704558027  1.0000
  C   C62       1.0  0.6201403413002023  0.493476903772512  0.12889782984011766  1.0000
  C   C63       1.0  0.12014034088222884  0.006523096601830641  0.6288978299525705  1.0000
  C   C64       1.0  0.3798596585923007  0.5065230961197886  0.8711021705682556  1.0000
  C   C65       1.0  0.8189663624628035  0.02423548666758902  0.29996465566944  1.0000
  C   C66       1.0  0.6810336369170571  0.524235486185547  0.20003534462548153  1.0000
  C   C67       1.0  0.18103363742969944  0.9757645140810963  0.7000353447389333  1.0000
  C   C68       1.0  0.3189663629754459  0.4757645137067536  0.7999646557828917  1.0000
  C   C69       1.0  0.5679450184295145  0.9749175813271539  0.1652095994852611  1.0000
  C   C70       1.0  0.9320549809108314  0.47491758095281117  0.3347904002187409  1.0000
  C   C71       1.0  0.43205498142347376  0.025082419421531443  0.8347904003321927  1.0000
  C   C72       1.0  0.06794501894215675  0.5250824189394895  0.6652095995987128  1.0000
  C   C73       1.0  0.6355140027894577  0.9141625286352315  0.1099962420683009  1.0000
  C   C74       1.0  0.8644859975210187  0.4141625291172734  0.39000375822761946  1.0000
  C   C75       1.0  0.36448599710304536  0.08583747125706924  0.8900037583400723  1.0000
  C   C76       1.0  0.13551400233196934  0.5858374707750272  0.6099962415898342  1.0000
  C   C77       1.0  0.5945719455442864  0.8063680831826563  0.08475116598520113  1.0000
  C   C78       1.0  0.9054280547266752  0.3063680828083136  0.41524883371979976  1.0000
  C   C79       1.0  0.4054280543087017  0.19363191670964433  0.9152488338322526  1.0000
  C   C80       1.0  0.09457194605692869  0.693631917083987  0.5847511660986529  1.0000
  C   C81       1.0  0.48694099584671036  0.75906134511162  0.11465329313502558  1.0000
  C   C82       1.0  0.013059004060026216  0.25906134559366195  0.3853467064782416  1.0000
  C   C83       1.0  0.5130590040062777  0.2409386547806807  0.8853467066824281  1.0000
  C   C84       1.0  0.9869409957929618  0.7409386542986387  0.6146532933392121  1.0000
  C   C85       1.0  0.42005973599440416  0.8192998616814275  0.1699975624709593  1.0000
  C   C86       1.0  0.07994026395184735  0.3192998621634695  0.3300024377332273  1.0000
  C   C87       1.0  0.5799402638980989  0.18070013821087313  0.8300024379374138  1.0000
  C   C88       1.0  0.9200597359011407  0.6807001377288311  0.6699975620842265  1.0000
  C   C89       1.0  0.4601882887635199  0.9270700243466404  0.19557892752161296  1.0000
  C   C90       1.0  0.03981171211334733  0.4270700239722978  0.30442107268357255  1.0000
  C   C91       1.0  0.5398117120595988  0.07292997554566019  0.8044210728877591  1.0000
  C   C92       1.0  0.9601882886702567  0.5729299759200028  0.69557892713488  1.0000
  F   F1        1.0  0.1666605931820773  0.1730219936396573  0.03217077619265266  1.0000
  F   F2        1.0  0.33333940676417423  0.673021994014  0.46782922401153393  1.0000
  F   F3        1.0  0.8333394066709108  0.8269780062526434  0.9678292236248012  1.0000
  F   F4        1.0  0.6666605931283287  0.32697800587830067  0.5321707763968393  1.0000
  F   F5        1.0  0.932298519076631  0.8513016842700944  0.11542453982265212  1.0000
  F   F6        1.0  0.5677014811943306  0.3513016847521366  0.3845754598823488  1.0000
  F   F7        1.0  0.0677014807763571  0.14869831562220612  0.8845754599948016  1.0000
  F   F8        1.0  0.4322985195892734  0.6486983151401641  0.6154245399361039  1.0000
  P   P1        1.0  0.6231262122775996  0.10824825482303678  0.20684954007637663  1.0000
  P   P2        1.0  0.876873788032877  0.6082482551973795  0.2931504602195438  1.0000
  P   P3        1.0  0.37687378757538853  0.8917517450692638  0.7931504597410771  1.0000
  P   P4        1.0  0.12312621185962618  0.39175174469492124  0.7068495401888295  1.0000
  Br  Br1       1.0  0.22569254799255228  0.544435439929179  0.1441974807048179  1.0000
  Br  Br2       1.0  0.2743074528448001  0.04443543955483633  0.3558025189094481  1.0000
  Br  Br3       1.0  0.7743074527910516  0.4555645599631217  0.8558025191136347  1.0000
  Br  Br4       1.0  0.7256925479388039  0.9555645603374644  0.6441974809090045  1.0000
  I   I1        1.0  0.13578573625391624  0.028217339687563184  0.1949221407704621  1.0000
  I   I2        1.0  0.36421426462295103  0.5282173400619059  0.3050778594347234  1.0000
  I   I3        1.0  0.8642142645296875  0.9717826602047375  0.8050778590479905  1.0000
  I   I4        1.0  0.6357857362001678  0.4717826598303948  0.6949221409746488  1.0000
