data_image0
_chemical_formula_structural       H16C48N8F16S20
_chemical_formula_sum              "H16 C48 N8 F16 S20"
_cell_length_a       9.841189859192667
_cell_length_b       10.482049373522194
_cell_length_c       14.884238419251831
_cell_angle_alpha    90.0
_cell_angle_beta     102.99548615324831
_cell_angle_gamma    90.0

_space_group_name_H-M_alt    "P 1"
_space_group_IT_number       1

loop_
  _space_group_symop_operation_xyz
  'x, y, z'

loop_
  _atom_site_type_symbol
  _atom_site_label
  _atom_site_symmetry_multiplicity
  _atom_site_fract_x
  _atom_site_fract_y
  _atom_site_fract_z
  _atom_site_occupancy
  H   H1        1.0  0.9562806830300675  0.25569739795066276  0.9683895125693562  1.0000
  H   H2        1.0  0.9562806828188792  0.7443026017133156  0.46838951277045665  1.0000
  H   H3        1.0  0.45628068276871586  0.7556973982596579  0.9683895121938473  1.0000
  H   H4        1.0  0.4562806825575275  0.2443026023583324  0.4683895123949477  1.0000
  H   H5        1.0  0.09627668753459448  0.1787666784639795  0.847768580787057  1.0000
  H   H6        1.0  0.09627668836624882  0.8212333211999989  0.34776858114512155  1.0000
  H   H7        1.0  0.5962766877959461  0.6787666787729747  0.8477685811625659  1.0000
  H   H8        1.0  0.5962766875877245  0.3212333218450157  0.3477685806922585  1.0000
  H   H9        1.0  0.5733170158778725  0.9959331727982627  0.38266022278931117  1.0000
  H   H10       1.0  0.5733170160860942  0.00406682781972776  0.8826602232596186  1.0000
  H   H11       1.0  0.0733170166563969  0.4959331724892674  0.38266022324217414  1.0000
  H   H12       1.0  0.07331701582474255  0.504066827174711  0.8826602228841096  1.0000
  H   H13       1.0  0.7093371117687096  0.9177893603803324  0.2633682663049933  1.0000
  H   H14       1.0  0.7093371119769312  0.08221063928364593  0.7633682667753008  1.0000
  H   H15       1.0  0.2093371125472339  0.41778936102534925  0.26336826675785635  1.0000
  H   H16       1.0  0.2093371117155796  0.5822106395926411  0.7633682663997918  1.0000
  C   C1        1.0  0.060203735934956475  0.2143291259126259  0.9840825693301114  1.0000
  C   C2        1.0  0.06020373572376812  0.7856708747053645  0.48408256953121176  1.0000
  C   C3        1.0  0.560203736196308  0.7143291252676092  0.9840825697056204  1.0000
  C   C4        1.0  0.5602037359880865  0.28567087439636923  0.4840825692353129  1.0000
  C   C5        1.0  0.13089710760443504  0.1731329814744225  0.9223565830496406  1.0000
  C   C6        1.0  0.13089710739324667  0.8268670181895559  0.42235658325074105  1.0000
  C   C7        1.0  0.6308971068259107  0.6731329817834176  0.9223565825967777  1.0000
  C   C8        1.0  0.630897107657565  0.3268670178805608  0.4223565829548422  1.0000
  C   C9        1.0  0.5402953390271097  0.010549875893481055  0.3086858276102264  1.0000
  C   C10       1.0  0.5402953392382982  0.9894501237704973  0.8086858274091261  1.0000
  C   C11       1.0  0.04029533876575822  0.5105498762024762  0.30868582723471744  1.0000
  C   C12       1.0  0.04029533897397979  0.4894501234615022  0.8086858277050248  1.0000
  C   C13       1.0  0.6115718425005852  0.9701595897542419  0.2467558986743922  1.0000
  C   C14       1.0  0.6115718427117735  0.029840409909736597  0.7467558984732919  1.0000
  C   C15       1.0  0.11157184327910945  0.47015958944524666  0.2467558991272552  1.0000
  C   C16       1.0  0.11157184244745513  0.5298404102187317  0.7467558987691907  1.0000
  C   C17       1.0  0.3933217377206888  0.08052522554722279  0.15138578921185566  1.0000
  C   C18       1.0  0.39332173793187714  0.9194747741167557  0.6513857890107554  1.0000
  C   C19       1.0  0.8933217379850071  0.580525225856218  0.1513857889159568  1.0000
  C   C20       1.0  0.8933217381961954  0.4194747738077605  0.6513857887148564  1.0000
  C   C21       1.0  0.2888401247084489  0.12210232316144222  0.08123068805804266  1.0000
  C   C22       1.0  0.2888401238767946  0.8778976765025361  0.5812306876999781  1.0000
  C   C23       1.0  0.7888401239269578  0.6221023234704374  0.08123068827658748  1.0000
  C   C24       1.0  0.7888401241381461  0.37789767619354103  0.5812306880754871  1.0000
  C   C25       1.0  0.6784910872374792  0.6919198881394816  0.5596316772313102  1.0000
  C   C26       1.0  0.6784910870262908  0.3080801115244968  0.059631677432410615  1.0000
  C   C27       1.0  0.17849108697612753  0.19191988878449834  0.5596316768558013  1.0000
  C   C28       1.0  0.1784910867649392  0.8080801118334919  0.059631677056901665  1.0000
  C   C29       1.0  0.41620946239052165  0.5766441956730591  0.5308497265405945  1.0000
  C   C30       1.0  0.41620946322217595  0.42335580399091927  0.030849726898658916  1.0000
  C   C31       1.0  0.9162094626548402  0.07664419631807594  0.5308497262446956  1.0000
  C   C32       1.0  0.9162094624436516  0.9233558042999144  0.03084972644579592  1.0000
  C   C33       1.0  0.4772310167170709  0.6072194924093604  0.4554230376502024  1.0000
  C   C34       1.0  0.47723101588244987  0.39278050725461816  0.9554230379635458  1.0000
  C   C35       1.0  0.9772310159355798  0.10721949305437703  0.4554230378687472  1.0000
  C   C36       1.0  0.9772310161467683  0.8927805075636133  0.9554230376676469  1.0000
  C   C37       1.0  0.6170682403209138  0.6601051706051048  0.6365321695960273  1.0000
  C   C38       1.0  0.6170682401097254  0.33989482905887364  0.1365321697971276  1.0000
  C   C39       1.0  0.11706824005659541  0.16010517125012153  0.6365321698919261  1.0000
  C   C40       1.0  0.11706823984837385  0.8398948293678687  0.13653216942161864  1.0000
  C   C41       1.0  0.6059331538631771  0.664401266568338  0.4684978608272633  1.0000
  C   C42       1.0  0.6059331540743654  0.3355987330956404  0.9684978606261629  1.0000
  C   C43       1.0  0.10593315360182548  0.16440126625934282  0.46849786045175434  1.0000
  C   C44       1.0  0.10593315381004707  0.8355987334046356  0.9684978609220619  1.0000
  C   C45       1.0  0.48414802176127175  0.6020878270180604  0.6203641823607643  1.0000
  C   C46       1.0  0.48414802155008335  0.39791217264591794  0.1203641825618647  1.0000
  C   C47       1.0  0.9841480209797807  0.10208782670906527  0.6203641825793091  1.0000
  C   C48       1.0  0.9841480218144019  0.8979121729549131  0.1203641822659658  1.0000
  N   N1        1.0  0.6991464719748586  0.69137636942506  0.7188805906734353  1.0000
  N   N2        1.0  0.699146472806513  0.3086236302389184  0.21888059103149993  1.0000
  N   N3        1.0  0.199146472753383  0.19137636911606487  0.7188805911262984  1.0000
  N   N4        1.0  0.19914647254516143  0.8086236305479136  0.21888059065599097  1.0000
  N   N5        1.0  0.8049958598761123  0.7467710617518039  0.5860818254035515  1.0000
  N   N6        1.0  0.8049958596678908  0.25322893791217455  0.0860818249332441  1.0000
  N   N7        1.0  0.3049958596147607  0.24677106144280872  0.5860818250280425  1.0000
  N   N8        1.0  0.3049958594035724  0.7532289382211698  0.08608182522914294  1.0000
  F   F1        1.0  0.42533597773516846  0.5720659335136362  0.6913558591553198  1.0000
  F   F2        1.0  0.4253359775239801  0.4279340671043541  0.1913558593564202  1.0000
  F   F3        1.0  0.9253359779965199  0.07206593320464105  0.6913558595308287  1.0000
  F   F4        1.0  0.9253359777882983  0.9279340664593374  0.19135585906052133  1.0000
  F   F5        1.0  0.6596181027448922  0.6964101751361154  0.39560580232106074  1.0000
  F   F6        1.0  0.6596181029560805  0.30358982548187496  0.8956058021199603  1.0000
  F   F7        1.0  0.15961810248354055  0.1964101748271202  0.39560580194555184  1.0000
  F   F8        1.0  0.1596181026947289  0.8035898248368583  0.8956058017444514  1.0000
  F   F9        1.0  0.2894076877139162  0.5214512949926458  0.5114402630813633  1.0000
  F   F10       1.0  0.28940768750272783  0.4785487046713326  0.011440263282463572  1.0000
  F   F11       1.0  0.789407686932425  0.02145129468365062  0.5114402632999081  1.0000
  F   F12       1.0  0.7894076877640794  0.9785487049803278  0.011440263657972535  1.0000
  F   F13       1.0  0.403820975176177  0.5785705155443436  0.3699736668067141  1.0000
  F   F14       1.0  0.4038209753873653  0.4214294841196348  0.8699736666056137  1.0000
  F   F15       1.0  0.9038209754404953  0.07857051618936034  0.3699736665108152  1.0000
  F   F16       1.0  0.9038209746058743  0.92142948442863  0.8699736668241586  1.0000
  S   S1        1.0  0.14062427352072118  0.20087927321911325  0.10046827991819214  1.0000
  S   S2        1.0  0.14062427268610003  0.7991207264448652  0.6004682802315354  1.0000
  S   S3        1.0  0.6406242727392301  0.7008792735281084  0.10046828013673693  1.0000
  S   S4        1.0  0.6406242729504185  0.29912072613587  0.6004682799356366  1.0000
  S   S5        1.0  0.2961965031389651  0.10934390109773634  0.9645772243633067  1.0000
  S   S6        1.0  0.29619650293074357  0.8906560985662421  0.4645772238929992  1.0000
  S   S7        1.0  0.7961965023604409  0.6093439014067314  0.9645772239104438  1.0000
  S   S8        1.0  0.7961965031920951  0.3906560982572469  0.46457722426850817  1.0000
  S   S9        1.0  0.38853533305595095  0.09718210377573386  0.26812020999231956  1.0000
  S   S10       1.0  0.3885353332671393  0.9028178958882447  0.7681202097912192  1.0000
  S   S11       1.0  0.8885353333173024  0.597182104084729  0.26812021036782846  1.0000
  S   S12       1.0  0.8885353324856481  0.4028178955792494  0.768120210009764  1.0000
  S   S13       1.0  0.54575221240606  0.009646782456055361  0.1318315932562695  1.0000
  S   S14       1.0  0.5457522126172483  0.9903532181619349  0.6318315930551691  1.0000
  S   S15       1.0  0.04575221318458424  0.5096467818110386  0.1318315937091325  1.0000
  S   S16       1.0  0.0457522133957726  0.49035321785293984  0.6318315935080322  1.0000
  S   S17       1.0  0.8380982357569967  0.7554033841894909  0.6973725925851431  1.0000
  S   S18       1.0  0.8380982355487749  0.2445966154744874  0.19737259211483565  1.0000
  S   S19       1.0  0.3380982354956451  0.25540338483450775  0.6973725922096342  1.0000
  S   S20       1.0  0.33809823632729946  0.7445966157834826  0.19737259256769868  1.0000
