data_image0
_chemical_formula_structural       H40C88N16O8F32Br8
_chemical_formula_sum              "H40 C88 N16 O8 F32 Br8"
_cell_length_a       18.20676533063147
_cell_length_b       16.51424740099368
_cell_length_c       7.463728594099052
_cell_angle_alpha    90.0
_cell_angle_beta     99.59231571645797
_cell_angle_gamma    90.0

_space_group_name_H-M_alt    "P 1"
_space_group_IT_number       1

loop_
  _space_group_symop_operation_xyz
  'x, y, z'

loop_
  _atom_site_type_symbol
  _atom_site_label
  _atom_site_symmetry_multiplicity
  _atom_site_fract_x
  _atom_site_fract_y
  _atom_site_fract_z
  _atom_site_occupancy
  H   H1        1.0  0.34802492556369513  0.4320361580371319  0.3392299216329963  1.0000
  H   H2        1.0  0.6519750743008951  0.9320361580070464  0.16077007862466314  1.0000
  H   H3        1.0  0.6519750741051669  0.5679638419026971  0.6607700778948734  1.0000
  H   H4        1.0  0.3480249254610204  0.06796384193278258  0.8392299222620178  1.0000
  H   H5        1.0  0.16072092766491852  0.4707915832441862  0.6143354443670385  1.0000
  H   H6        1.0  0.8392790723574227  0.9707915832141005  0.8856645544304699  1.0000
  H   H7        1.0  0.8392790725531508  0.5292084166956429  0.3856645551602596  1.0000
  H   H8        1.0  0.16072092786064662  0.02920841672572837  0.11433544509682828  1.0000
  H   H9        1.0  0.14420614597443815  0.31875535664333454  0.6195175284630344  1.0000
  H   H10       1.0  0.8557938541409564  0.818755356613249  0.8804824716932852  1.0000
  H   H11       1.0  0.855793853694424  0.6812446432964945  0.38048247106483524  1.0000
  H   H12       1.0  0.14420614617016625  0.18124464332658  0.11951752919282421  1.0000
  H   H13       1.0  0.23331005361470017  0.23199067732081308  0.48568051810452184  1.0000
  H   H14       1.0  0.7666899461568367  0.7319906772907276  0.014319480794326425  1.0000
  H   H15       1.0  0.7666899466033692  0.7680093226190159  0.5143194814227764  1.0000
  H   H16       1.0  0.2333100535120254  0.2680093226491015  0.9856805187335432  1.0000
  H   H17       1.0  0.13575573420979212  0.7044994826285547  0.5876223056820313  1.0000
  H   H18       1.0  0.8642442659056024  0.20449948265864015  0.9123776944742883  1.0000
  H   H19       1.0  0.86424426545907  0.29550051731127436  0.41237769384583844  1.0000
  H   H20       1.0  0.13575573440552022  0.7955005172811889  0.087622306411821  1.0000
  H   H21       1.0  0.3533372403511597  0.6653073841765808  0.44693073198565514  1.0000
  H   H22       1.0  0.6466627595134304  0.16530738420666616  0.053069268272004325  1.0000
  H   H23       1.0  0.6466627594107557  0.3346926157632484  0.5530692689010257  1.0000
  H   H24       1.0  0.35333724070463896  0.8346926157331629  0.9469307312552938  1.0000
  H   H25       1.0  0.3699443330955694  0.8173672612648276  0.44767739947684143  1.0000
  H   H26       1.0  0.630055667318228  0.3173672612949131  0.05232260078024647  1.0000
  H   H27       1.0  0.6300556672155532  0.18263273867500143  0.5523226014092679  1.0000
  H   H28       1.0  0.3699443328998413  0.6826327386449159  0.9476773987470517  1.0000
  H   H29       1.0  0.2674628293533849  0.9042706293174126  0.5254753724489755  1.0000
  H   H30       1.0  0.7325371707620096  0.4042706293474982  0.974524627707344  1.0000
  H   H31       1.0  0.7325371709577377  0.09572937062241636  0.4745246284371339  1.0000
  H   H32       1.0  0.2674628294560597  0.5957293705923309  0.025475371819954087  1.0000
  H   H33       1.0  0.3578390061939408  0.27871194358654516  0.34371041992153445  1.0000
  H   H34       1.0  0.6421609936706494  0.7787119435564597  0.156289580336125  1.0000
  H   H35       1.0  0.6421609935679746  0.7212880563532839  0.6562895809651463  1.0000
  H   H36       1.0  0.35783900599821267  0.22128805638336935  0.8437104191917447  1.0000
  H   H37       1.0  0.13477098195172  0.856659883825451  0.6203321399749039  1.0000
  H   H38       1.0  0.8652290181636746  0.35665988385553643  0.8796678601814157  1.0000
  H   H39       1.0  0.8652290178101953  0.14334011611437805  0.37966786091177696  1.0000
  H   H40       1.0  0.13477098205439478  0.6433401160842925  0.12033213934588248  1.0000
  C   C1        1.0  0.3021535637659657  0.40854279072953936  0.4013732423080604  1.0000
  C   C2        1.0  0.6978464366478317  0.908542790699454  0.0986267579490275  1.0000
  C   C3        1.0  0.6978464365451569  0.5914572098158274  0.5986267585780489  1.0000
  C   C4        1.0  0.3021535635702376  0.09145720984591287  0.9013732415782707  1.0000
  C   C5        1.0  0.2550483242628916  0.46193416053225567  0.47419782974434904  1.0000
  C   C6        1.0  0.7449516755086452  0.9619341605021702  0.02580216915449921  1.0000
  C   C7        1.0  0.7449516754059704  0.5380658394075734  0.5258021697835206  1.0000
  C   C8        1.0  0.2550483247094241  0.03806583943765883  0.974197830372799  1.0000
  C   C9        1.0  0.1972193015721064  0.4299680256438904  0.5560241243514258  1.0000
  C   C10       1.0  0.8027806985432882  0.9299680256138049  0.9439758758048938  1.0000
  C   C11       1.0  0.802780698645963  0.5700319742959387  0.44397587517587245  1.0000
  C   C12       1.0  0.1972193011255739  0.07003197432602412  0.056024123722975834  1.0000
  C   C13       1.0  0.18854845900902162  0.34653681158099  0.5591173156795781  1.0000
  C   C14       1.0  0.811451541106373  0.8465368115509044  0.9408826844767416  1.0000
  C   C15       1.0  0.8114515407528937  0.6534631883588391  0.4408826852071029  1.0000
  C   C16       1.0  0.1885484591116964  0.15346318838892453  0.059117315050556576  1.0000
  C   C17       1.0  0.23798137171507813  0.2975611688913126  0.4837519514382732  1.0000
  C   C18       1.0  0.762018628149512  0.7975611688612271  0.016248048819386234  1.0000
  C   C19       1.0  0.7620186280468372  0.7024388310485165  0.5162480494484076  1.0000
  C   C20       1.0  0.2379813720685573  0.20243883107860192  0.983751950707912  1.0000
  C   C21       1.0  0.1882922382674988  0.7278011342664515  0.5563994999717733  1.0000
  C   C22       1.0  0.8117077617548425  0.22780113429653712  0.9436004988257352  1.0000
  C   C23       1.0  0.8117077619505705  0.2721988656733774  0.44360049955552483  1.0000
  C   C24       1.0  0.18829223846322693  0.772198865643292  0.05639950070156306  1.0000
  C   C25       1.0  0.2430691170635496  0.6744035292416571  0.5159659415676625  1.0000
  C   C26       1.0  0.7569308830518449  0.1744035292717426  0.9840340585886571  1.0000
  C   C27       1.0  0.7569308832475731  0.32559647069817194  0.4840340593184469  1.0000
  C   C28       1.0  0.24306911716622442  0.8255964706680864  0.015965940938641034  1.0000
  C   C29       1.0  0.31010814303354883  0.7061991465198871  0.4763614620788413  1.0000
  C   C30       1.0  0.6898918568310414  0.20619914654997262  0.023638538178818152  1.0000
  C   C31       1.0  0.6898918572775739  0.2938008534199419  0.5236385388072681  1.0000
  C   C32       1.0  0.31010814283782073  0.7938008533898564  0.9763614613490517  1.0000
  C   C33       1.0  0.31911082836301297  0.7896537331283616  0.4778644915162513  1.0000
  C   C34       1.0  0.6808891720507845  0.289653733158447  0.02213550874083659  1.0000
  C   C35       1.0  0.6808891719481098  0.2103462668114675  0.5221355093698581  1.0000
  C   C36       1.0  0.3191108281672848  0.710346266781382  0.9778644907864616  1.0000
  C   C37       1.0  0.2619382421041756  0.8387555317335592  0.5200879405046731  1.0000
  C   C38       1.0  0.7380617574620117  0.33875553176364465  0.9799120596522181  1.0000
  C   C39       1.0  0.7380617576577398  0.16124446820626986  0.4799120603820077  1.0000
  C   C40       1.0  0.2619382422068504  0.6612444681761843  0.020087939875651748  1.0000
  C   C41       1.0  0.42295030829784225  0.18354974261906787  0.29356514824899754  1.0000
  C   C42       1.0  0.5770496921159551  0.6835497425889824  0.20643485200809034  1.0000
  C   C43       1.0  0.5770496919202271  0.8164502573207612  0.7064348512783006  1.0000
  C   C44       1.0  0.4229503081951675  0.3164502573508467  0.793565148878019  1.0000
  C   C45       1.0  0.3786174903164921  0.121042783934539  0.3460172640578051  1.0000
  C   C46       1.0  0.621382509548098  0.6210427839044534  0.1539827361998544  1.0000
  C   C47       1.0  0.6213825093523699  0.8789572166108277  0.6539827354700647  1.0000
  C   C48       1.0  0.37861749076302453  0.3789572160353755  0.8460172646862549  1.0000
  C   C49       1.0  0.3971626608838497  0.039801771406213146  0.33359555159221027  1.0000
  C   C50       1.0  0.6028373395299477  0.5398017713761276  0.16640444866487764  1.0000
  C   C51       1.0  0.602837339427273  0.9601982285336159  0.6664044492938991  1.0000
  C   C52       1.0  0.3971626606881216  0.46019822856370135  0.8335955508624205  1.0000
  C   C53       1.0  0.46214109883376264  0.01602380136221512  0.27251477049750716  1.0000
  C   C54       1.0  0.5378589009377741  0.5160238013321296  0.2274852284013411  1.0000
  C   C55       1.0  0.5378589013843067  0.9839761985776139  0.727485229029791  1.0000
  C   C56       1.0  0.46214109873108783  0.4839761986076994  0.7725147711265287  1.0000
  C   C57       1.0  0.5083836257210571  0.07743309089114508  0.22657770611102343  1.0000
  C   C58       1.0  0.49161637405047964  0.5774330908610595  0.2734222927878248  1.0000
  C   C59       1.0  0.4916163744970123  0.922566909048684  0.7734222934162749  1.0000
  C   C60       1.0  0.5083836256183824  0.4225669090787694  0.7265777067400447  1.0000
  C   C61       1.0  0.4887433891065069  0.1585354189281715  0.23382809227978585  1.0000
  C   C62       1.0  0.5112566107580833  0.658535418898086  0.2661719079778736  1.0000
  C   C63       1.0  0.5112566105623552  0.8414645810116576  0.7661719072480839  1.0000
  C   C64       1.0  0.4887433895530394  0.34146458104174304  0.7338280929082358  1.0000
  C   C65       1.0  0.07196807818548558  0.9518190407547242  0.6852182561756648  1.0000
  C   C66       1.0  0.928031921929909  0.4518190407848097  0.8147817439806548  1.0000
  C   C67       1.0  0.928031922125637  0.04818095918510484  0.3147817447104447  1.0000
  C   C68       1.0  0.07196807773895306  0.5481809591550194  0.18521825554721477  1.0000
  C   C69       1.0  0.11363986497011903  0.015035645522971843  0.6253529056000429  1.0000
  C   C70       1.0  0.8863601351452756  0.5150356454928864  0.8746470945562768  1.0000
  C   C71       1.0  0.8863601346987431  0.9849643550223949  0.37464709392782686  1.0000
  C   C72       1.0  0.11363986516584713  0.4849643550524805  0.12535290632983256  1.0000
  C   C73       1.0  0.09443968618338724  0.09609162267391705  0.6396786704894311  1.0000
  C   C74       1.0  0.9055603139320072  0.5960916226438315  0.8603213296668887  1.0000
  C   C75       1.0  0.9055603140346821  0.903908377265912  0.3603213290378672  1.0000
  C   C76       1.0  0.09443968637911533  0.40390837729599743  0.13967867121922073  1.0000
  C   C77       1.0  0.03222111187534901  0.11903413290766847  0.713836904761889  1.0000
  C   C78       1.0  0.9677788882400457  0.619034132877583  0.7861630953944306  1.0000
  C   C79       1.0  0.9677788883427203  0.8809658670321606  0.28616309476540913  1.0000
  C   C80       1.0  0.03222111152186982  0.38096586706224606  0.21383690549225026  1.0000
  C   C81       1.0  0.9894370964262216  0.05692212955120424  0.7705435246061211  1.0000
  C   C82       1.0  0.010562903689173057  0.5569221295211187  0.7294564755501984  1.0000
  C   C83       1.0  0.010562903791847848  0.9430778703886248  0.22945647492117707  1.0000
  C   C84       1.0  0.9894370965288962  0.4430778704187103  0.2705435239770997  1.0000
  C   C85       1.0  0.008713288163405946  0.9761478920940728  0.7569966097681001  1.0000
  C   C86       1.0  0.9912867119519885  0.4761478921241583  0.7430033903882195  1.0000
  C   C87       1.0  0.9912867120546633  0.023852107845756185  0.24300338975919802  1.0000
  C   C88       1.0  0.008713287809926742  0.5238521078156707  0.25699661049846134  1.0000
  N   N1        1.0  0.2939824412161273  0.32792536762372515  0.4071948712890094  1.0000
  N   N2        1.0  0.7060175586484627  0.8279253675936397  0.09280512896865005  1.0000
  N   N3        1.0  0.7060175585457881  0.6720746323161039  0.5928051295976714  1.0000
  N   N4        1.0  0.2939824415696065  0.17207463234618933  0.9071948705586481  1.0000
  N   N5        1.0  0.2711345856250867  0.5451520763494371  0.4603944326456888  1.0000
  N   N6        1.0  0.7288654142395034  0.04515207577398491  0.03960556761197066  1.0000
  N   N7        1.0  0.7288654141368287  0.4548479241959296  0.539605568240992  1.0000
  N   N8        1.0  0.2711345859785659  0.9548479241658441  0.9603944319153276  1.0000
  N   N9        1.0  0.19775478401221794  0.8083115485599907  0.5581603602445567  1.0000
  N   N10       1.0  0.8022452160101233  0.3083115485900761  0.9418396385529518  1.0000
  N   N11       1.0  0.8022452162058515  0.19168845137983842  0.4418396392827416  1.0000
  N   N12       1.0  0.197754784207946  0.691688451349753  0.05816036097434634  1.0000
  N   N13       1.0  0.22598183930279506  0.591372880813955  0.5230256824040442  1.0000
  N   N14       1.0  0.7740181608125996  0.09137288084404044  0.9769743177522753  1.0000
  N   N15       1.0  0.774018160366067  0.408627119125874  0.47697431712382543  1.0000
  N   N16       1.0  0.22598183949852313  0.9086271190957885  0.023025683133834  1.0000
  O   O1        1.0  0.4077011559942665  0.26231068390917694  0.29772932299834776  1.0000
  O   O2        1.0  0.5922988438703237  0.7623106844846292  0.20227067725931172  1.0000
  O   O3        1.0  0.5922988437676489  0.7376893160306521  0.7022706778883332  1.0000
  O   O4        1.0  0.4077011563477457  0.23768931606073754  0.7977293222679865  1.0000
  O   O5        1.0  0.08667627175078775  0.8732453480824246  0.6756572710746876  1.0000
  O   O6        1.0  0.9133237278153995  0.3732453481125101  0.8243427290822035  1.0000
  O   O7        1.0  0.9133237280111278  0.12675465185740445  0.32434272981199325  1.0000
  O   O8        1.0  0.08667627185346254  0.6267546518273189  0.17565727044566626  1.0000
  F   F1        1.0  0.3158720684476091  0.14041043431748984  0.4128746026619903  1.0000
  F   F2        1.0  0.684127931416981  0.6404104342874044  0.08712539759566909  1.0000
  F   F3        1.0  0.6841279317704602  0.8595895656223392  0.587125396865308  1.0000
  F   F4        1.0  0.31587206834493436  0.35958956565242467  0.9128746032910117  1.0000
  F   F5        1.0  0.35094117746942105  0.9834219922745492  0.3859549155803614  1.0000
  F   F6        1.0  0.6490588223951692  0.48342199230463473  0.11404508467729806  1.0000
  F   F7        1.0  0.6490588227486482  0.016578007665279785  0.6140450839469368  1.0000
  F   F8        1.0  0.350941177273693  0.5165780076351942  0.8859549148505717  1.0000
  F   F9        1.0  0.5742005992301172  0.058462349300998556  0.1752959818561418  1.0000
  F   F10       1.0  0.42579940054141957  0.5584623492709131  0.3247040170427065  1.0000
  F   F11       1.0  0.42579940098795205  0.9415376506388304  0.8247040176711564  1.0000
  F   F12       1.0  0.5742005991274425  0.4415376506689159  0.6752959824851632  1.0000
  F   F13       1.0  0.5348435590498326  0.21602978951286245  0.18431112747956527  1.0000
  F   F14       1.0  0.46515644081475754  0.716029789482777  0.31568887277809415  1.0000
  F   F15       1.0  0.4651564406190295  0.7839702104269666  0.8156888720483045  1.0000
  F   F16       1.0  0.5348435589471577  0.28397021045705206  0.6843111281085867  1.0000
  F   F17       1.0  0.1745266372746107  0.9964989157792198  0.5495834071635295  1.0000
  F   F18       1.0  0.8254733628407839  0.49649891580930533  0.9504165929927901  1.0000
  F   F19       1.0  0.8254733624873047  0.0035010841606091625  0.45041659372315135  1.0000
  F   F20       1.0  0.1745266373772855  0.5035010841305237  0.0495834065345081  1.0000
  F   F21       1.0  0.13847996180001196  0.1530780845543037  0.5810224684057298  1.0000
  F   F22       1.0  0.8615200382223293  0.6530780845242181  0.9189775303917787  1.0000
  F   F23       1.0  0.8615200384180575  0.846921915991063  0.41897753112156844  1.0000
  F   F24       1.0  0.13847996144653277  0.3469219160211486  0.081022469136091  1.0000
  F   F25       1.0  0.9268436505459705  0.07482569504957563  0.8382971725871932  1.0000
  F   F26       1.0  0.07315634956942416  0.5748256950194902  0.6617028275691265  1.0000
  F   F27       1.0  0.07315634976515226  0.9251743048902534  0.1617028282989162  1.0000
  F   F28       1.0  0.9268436506486452  0.42517430492033886  0.3382971719581717  1.0000
  F   F29       1.0  0.9641679454793732  0.9180610694428463  0.8107697234073752  1.0000
  F   F30       1.0  0.03583205463602147  0.4180610694729317  0.6892302767489444  1.0000
  F   F31       1.0  0.035832054189488954  0.08193893049698281  0.18923027612049448  1.0000
  F   F32       1.0  0.9641679455820479  0.5819389304668974  0.3107697227783538  1.0000
  Br  Br1       1.0  0.48828367046350013  0.9064788395442867  0.2564199731458055  1.0000
  Br  Br2       1.0  0.5117163293080368  0.40647883957437203  0.24358002575304274  1.0000
  Br  Br3       1.0  0.5117163297545693  0.09352116039554245  0.7435800263814927  1.0000
  Br  Br4       1.0  0.4882836703608253  0.593521160365457  0.756419973774827  1.0000
  Br  Br5       1.0  0.005792407218235196  0.22773627333291033  0.7389332651283174  1.0000
  Br  Br6       1.0  0.9942075928971595  0.7277362733028248  0.7610667350280023  1.0000
  Br  Br7       1.0  0.9942075925436801  0.7722637266069188  0.26106673575836353  1.0000
  Br  Br8       1.0  0.005792407320909974  0.2722637266370042  0.2389332644992959  1.0000
