data_image0
_chemical_formula_structural       H124C94N16O20F18S6Br2I8
_chemical_formula_sum              "H124 C94 N16 O20 F18 S6 Br2 I8"
_cell_length_a       8.635149227188816
_cell_length_b       19.013218966348962
_cell_length_c       19.507537607768136
_cell_angle_alpha    85.96985639679308
_cell_angle_beta     82.45496266982475
_cell_angle_gamma    89.2597838003112

_space_group_name_H-M_alt    "P 1"
_space_group_IT_number       1

loop_
  _space_group_symop_operation_xyz
  'x, y, z'

loop_
  _atom_site_type_symbol
  _atom_site_label
  _atom_site_symmetry_multiplicity
  _atom_site_fract_x
  _atom_site_fract_y
  _atom_site_fract_z
  _atom_site_occupancy
  H   H1        1.0  0.37705237712599005  0.6749458026798077  0.011860556459516057  1.0000
  H   H2        1.0  0.6229476224024656  0.3250541972905902  0.9881394435313426  1.0000
  H   H3        1.0  0.36204551175828475  0.655565079612196  0.9247294968108538  1.0000
  H   H4        1.0  0.6379544877701708  0.3444349203582019  0.07527050318000485  1.0000
  H   H5        1.0  0.09116398087434117  0.6641321573974015  0.042191896387404164  1.0000
  H   H6        1.0  0.9088360186541146  0.33586784257299646  0.9578081036034545  1.0000
  H   H7        1.0  0.0001868622011299016  0.7027268591255144  0.9294519525215929  1.0000
  H   H8        1.0  0.9998131384854353  0.29727314084572914  0.07054804746900438  1.0000
  H   H9        1.0  0.9274654552755747  0.6175484387468331  0.9573313048627053  1.0000
  H   H10       1.0  0.07253454541099034  0.38245156122441054  0.04266869512789188  1.0000
  H   H11       1.0  0.08904316272286213  0.6279401958804185  0.8909563927388606  1.0000
  H   H12       1.0  0.910956837946304  0.37205980461666605  0.10904360725383515  1.0000
  H   H13       1.0  0.0800420727012381  0.5337329555292775  0.03516888556805232  1.0000
  H   H14       1.0  0.9199579279853269  0.4662670444419662  0.964831114422545  1.0000
  H   H15       1.0  0.26723268453270554  0.5591342922367344  0.05231288616344898  1.0000
  H   H16       1.0  0.7327673161538595  0.4408657077345092  0.9476871138271482  1.0000
  H   H17       1.0  0.24024110015786523  0.5380110786637377  0.9675606761888281  1.0000
  H   H18       1.0  0.7597588993705904  0.46198892130666025  0.03243932380203049  1.0000
  H   H19       1.0  0.29881645781076593  0.74897733299561  0.8404244253949673  1.0000
  H   H20       1.0  0.7011835417176897  0.25102266697478803  0.15957557459589117  1.0000
  H   H21       1.0  0.2374798837177494  0.8947517842945263  0.8477679429088162  1.0000
  H   H22       1.0  0.7625201158107061  0.10524821567587157  0.15223205708204254  1.0000
  H   H23       1.0  0.12709484391327264  0.9300024372013609  0.03300970750581342  1.0000
  H   H24       1.0  0.8729051556151829  0.06999756276903718  0.9669902924850452  1.0000
  H   H25       1.0  0.14134310874985576  0.9669597800129398  0.9455336454692628  1.0000
  H   H26       1.0  0.8586568919367092  0.0330402199583039  0.05446635452133452  1.0000
  H   H27       1.0  0.41582628096252944  0.9998563650312549  0.8827912955580222  1.0000
  H   H28       1.0  0.584173718565926  0.00014363493914296176  0.11720870443283642  1.0000
  H   H29       1.0  0.32593041240039244  0.9514735831378094  0.10338174667799231  1.0000
  H   H30       1.0  0.6740695882861726  0.04852641683343402  0.8966182533126048  1.0000
  H   H31       1.0  0.3372346311702702  0.1445420453366952  0.5536867622937491  1.0000
  H   H32       1.0  0.6627653683581853  0.8554579546337028  0.4463132376971095  1.0000
  H   H33       1.0  0.26768631160413103  0.12961881088240518  0.4742506231557835  1.0000
  H   H34       1.0  0.7323136879243245  0.8703811890879929  0.5257493768350752  1.0000
  H   H35       1.0  0.05170684827479074  0.21566512847976663  0.5000803186150459  1.0000
  H   H36       1.0  0.9482931524117745  0.7843348714914768  0.4999196813755513  1.0000
  H   H37       1.0  0.16984584903727593  0.29134609769945197  0.5796618219247519  1.0000
  H   H38       1.0  0.8301541504911796  0.7086539022709459  0.42033817806610674  1.0000
  H   H39       1.0  0.16005891602718728  0.21948077161326782  0.6436756788486969  1.0000
  H   H40       1.0  0.8399410835012683  0.7805192283571302  0.3563243211421618  1.0000
  H   H41       1.0  0.9861991683120377  0.25694161630187384  0.6182535873625143  1.0000
  H   H42       1.0  0.013800832357128543  0.7430583841952108  0.38174641263018133  1.0000
  H   H43       1.0  0.06929151201887694  0.09593488607201973  0.6130696281209016  1.0000
  H   H44       1.0  0.9307084886676882  0.9040651138992238  0.38693037186969553  1.0000
  H   H45       1.0  0.015304155337783436  0.08618939583062141  0.5294680475840804  1.0000
  H   H46       1.0  0.9846958441906721  0.9138106041397768  0.4705319524067781  1.0000
  H   H47       1.0  0.8956481790890148  0.1356515146768662  0.5899593121042445  1.0000
  H   H48       1.0  0.10435182043944072  0.8643484852935317  0.41004068788661413  1.0000
  H   H49       1.0  0.23969610720647344  0.24683072221001548  0.3906580616073055  1.0000
  H   H50       1.0  0.7603038934800916  0.753169277761228  0.6093419383832918  1.0000
  H   H51       1.0  0.44983037720295205  0.3593404189578203  0.36212138165985  1.0000
  H   H52       1.0  0.5501696223255036  0.6406595810125776  0.6378786183310087  1.0000
  H   H53       1.0  0.7221858894902699  0.3732604194247725  0.4123258318904083  1.0000
  H   H54       1.0  0.27781411003818574  0.6267395805456255  0.5876741681004501  1.0000
  H   H55       1.0  0.7213540930449402  0.3456658450642244  0.5006821281814923  1.0000
  H   H56       1.0  0.27864590648351545  0.6543341549061736  0.4993178718093664  1.0000
  H   H57       1.0  0.5996558435241949  0.4826220612411267  0.37667653780332333  1.0000
  H   H58       1.0  0.40034415716237026  0.5173779387301168  0.6233234621872737  1.0000
  H   H59       1.0  0.5310083394207198  0.4048653228857878  0.5915185886065133  1.0000
  H   H60       1.0  0.4689916600903368  0.5951346776104514  0.4084814113864438  1.0000
  H   H61       1.0  0.8491290836506153  0.5451316718614745  0.12994634740096453  1.0000
  H   H62       1.0  0.1508709170359498  0.45486832810976907  0.8700536525896326  1.0000
  H   H63       1.0  0.9313905857936838  0.6189919113326277  0.1630298545841385  1.0000
  H   H64       1.0  0.068609414892881  0.3810080886386159  0.8369701454064588  1.0000
  H   H65       1.0  0.6068365443520217  0.5568962570466516  0.21236839678374192  1.0000
  H   H66       1.0  0.3931634563345434  0.44310374292459215  0.7876316032068552  1.0000
  H   H67       1.0  0.7566654625617866  0.6902433787898524  0.2556425443676262  1.0000
  H   H68       1.0  0.24333453810737957  0.30975662170723217  0.7443574556250696  1.0000
  H   H69       1.0  0.71753667567969  0.6109393841604202  0.3087405479816984  1.0000
  H   H70       1.0  0.28246332500687504  0.38906061581082346  0.6912594520088988  1.0000
  H   H71       1.0  0.561540868607136  0.6626463858550334  0.2810587702192591  1.0000
  H   H72       1.0  0.4384591320794291  0.3373536141162101  0.718941229771338  1.0000
  H   H73       1.0  0.5107044613930828  0.6675379430951187  0.15469295478902964  1.0000
  H   H74       1.0  0.4892955381353729  0.33246205687527935  0.8453070452018289  1.0000
  H   H75       1.0  0.6296264556681925  0.6180666676452619  0.09373286520881885  1.0000
  H   H76       1.0  0.37037354501837255  0.38193333232598164  0.9062671347817782  1.0000
  H   H77       1.0  0.7050207094417865  0.6945672844857931  0.1255549787990645  1.0000
  H   H78       1.0  0.2949792900866691  0.30543271548460477  0.8744450211917941  1.0000
  H   H79       1.0  0.7701861910448574  0.43566924874022134  0.2249033743188874  1.0000
  H   H80       1.0  0.22981380964170764  0.5643307512310224  0.7750966256717099  1.0000
  H   H81       1.0  0.9459055710312159  0.383881914511084  0.328578290660521  1.0000
  H   H82       1.0  0.05409442849723959  0.6161180854593139  0.6714217093303376  1.0000
  H   H83       1.0  0.25005074399472627  0.5193392395116776  0.3447800400695589  1.0000
  H   H84       1.0  0.7499492566918388  0.48066076045956596  0.6552199599210383  1.0000
  H   H85       1.0  0.20962536004896185  0.4281182000289535  0.35786632536306157  1.0000
  H   H86       1.0  0.7903746406376033  0.5718817999422899  0.6421336746275357  1.0000
  H   H87       1.0  0.054827307697832256  0.6042522112490594  0.4163850369105216  1.0000
  H   H88       1.0  0.9451726918306235  0.3957477887213386  0.583614963080337  1.0000
  H   H89       1.0  0.07975488669699178  0.3799946811802462  0.4653579173051956  1.0000
  H   H90       1.0  0.9202451128314638  0.6200053187901517  0.5346420826856629  1.0000
  H   H91       1.0  0.12560485249465492  0.14402149547289614  0.2203891933792856  1.0000
  H   H92       1.0  0.8743951481919102  0.8559785044983472  0.7796108066113115  1.0000
  H   H93       1.0  0.18128124139424784  0.05762686841610931  0.19848049902592416  1.0000
  H   H94       1.0  0.8187187581342077  0.9423731315542887  0.8015195009649344  1.0000
  H   H95       1.0  0.39348737554193225  0.10994497334102091  0.10849915641730805  1.0000
  H   H96       1.0  0.6065126239865232  0.8900550266293771  0.8915008435735506  1.0000
  H   H97       1.0  0.1349848666900027  0.0680977834130116  0.08104901472204318  1.0000
  H   H98       1.0  0.8650151328384529  0.9319022165573864  0.9189509852688154  1.0000
  H   H99       1.0  0.21089584162816608  0.13930611877938517  0.022490492380319423  1.0000
  H   H100      1.0  0.7891041579002895  0.8606938811910129  0.977509507610539  1.0000
  H   H101      1.0  0.05815796152566829  0.1544364839863034  0.0904451234745662  1.0000
  H   H102      1.0  0.9418420391608968  0.8455635159849401  0.909554876516031  1.0000
  H   H103      1.0  0.3622524192290592  0.23559368919615084  0.06353893830448644  1.0000
  H   H104      1.0  0.6377475814575061  0.7644063107750927  0.9364610616861107  1.0000
  H   H105      1.0  0.4162371462763112  0.23192441654400098  0.14820223971368018  1.0000
  H   H106      1.0  0.583762854410254  0.7680755834272426  0.8517977602769169  1.0000
  H   H107      1.0  0.22028135519770228  0.24988333301003557  0.13570344549515218  1.0000
  H   H108      1.0  0.7797186443307533  0.7501166669603625  0.8642965544957064  1.0000
  H   H109      1.0  0.3545167736486814  0.22097795310040744  0.2636008009341841  1.0000
  H   H110      1.0  0.6454832258797742  0.7790220468699905  0.7363991990566745  1.0000
  H   H111      1.0  0.5719741882475453  0.1705615042811416  0.3496851665219796  1.0000
  H   H112      1.0  0.42802581126351136  0.8294384962150975  0.6503148334709776  1.0000
  H   H113      1.0  0.7273321913361799  0.050363065479732655  0.34602609645552984  1.0000
  H   H114      1.0  0.2726678081922757  0.9496369344906652  0.6539739035353287  1.0000
  H   H115      1.0  0.6239134882607137  0.9760475908775479  0.32736038503704445  1.0000
  H   H116      1.0  0.3760865112677419  0.023952409092850024  0.6726396149538142  1.0000
  H   H117      1.0  0.3179483094095576  0.981162242119129  0.4140568919839515  1.0000
  H   H118      1.0  0.682051690118898  0.01883775785126908  0.5859431080069071  1.0000
  H   H119      1.0  0.7691902035314667  0.04429734179354187  0.46141881941652885  1.0000
  H   H120      1.0  0.23080979715509847  0.9557026581777016  0.5385811805740683  1.0000
  H   H121      1.0  0.9381581941348087  0.9173655873851766  0.627725702663346  1.0000
  H   H122      1.0  0.061841805393646726  0.08263441258522136  0.37227429732751266  1.0000
  H   H123      1.0  0.9630424451313222  0.9878162633763459  0.66164687869202  1.0000
  H   H124      1.0  0.036957554397133434  0.01218373659405213  0.3383531212988386  1.0000
  C   C1        1.0  0.25313398191295167  0.8054145176987852  0.9951827158481363  1.0000
  C   C2        1.0  0.746866017615504  0.19458548227161276  0.004817284142722254  1.0000
  C   C3        1.0  0.30121449083098517  0.6788847603318388  0.9706816326545297  1.0000
  C   C4        1.0  0.6987855086974704  0.32111523963855926  0.02931836733632891  1.0000
  C   C5        1.0  0.14646390286127792  0.6404712340488311  0.9949039567462274  1.0000
  C   C6        1.0  0.8535360966671777  0.35952876592156674  0.005096043244631165  1.0000
  C   C7        1.0  0.03483393333627056  0.6476713385506491  0.9401896111016259  1.0000
  C   C8        1.0  0.9651660673502946  0.35232866142059444  0.059810388888971285  1.0000
  C   C9        1.0  0.1854937296650659  0.5634796528117615  0.013684988044784515  1.0000
  C   C10       1.0  0.8145062698633897  0.43652034715863647  0.9863150119460742  1.0000
  C   C11       1.0  0.2775399611108577  0.7819704950463051  0.8837027999084682  1.0000
  C   C12       1.0  0.7224600395757075  0.21802950492493828  0.11629720008212889  1.0000
  C   C13       1.0  0.2479573329184181  0.8524506367396983  0.8873006537587221  1.0000
  C   C14       1.0  0.7520426676160821  0.1475493631929355  0.11269934675021243  1.0000
  C   C15       1.0  0.20352045526167617  0.9364729658095166  0.9833891126860557  1.0000
  C   C16       1.0  0.7964795442667795  0.06352703416088157  0.016610887304803052  1.0000
  C   C17       1.0  0.35554288585576155  0.9709148108868325  0.9921173209848095  1.0000
  C   C18       1.0  0.644457113672694  0.029085189083565305  0.007882679006049154  1.0000
  C   C19       1.0  0.45323648555032153  0.999326784265516  0.9341425892495494  1.0000
  C   C20       1.0  0.5467635151362437  0.0006732157057274461  0.06585741074104762  1.0000
  C   C21       1.0  0.4029183124882228  0.9721807197774136  0.057907186971170185  1.0000
  C   C22       1.0  0.5970816881983424  0.027819280193829763  0.9420928130194269  1.0000
  C   C23       1.0  0.4835966459798868  0.2604263843918619  0.5026062436027853  1.0000
  C   C24       1.0  0.5164033535485688  0.7395736155785361  0.4973937563880733  1.0000
  C   C25       1.0  0.2723014818157705  0.1684248866103176  0.5130477604286903  1.0000
  C   C26       1.0  0.7276985188707946  0.8315751133609259  0.4869522395619069  1.0000
  C   C27       1.0  0.10714139820187361  0.19008086691724072  0.5430912353594726  1.0000
  C   C28       1.0  0.8928586013265819  0.8099191330531572  0.4569087646313859  1.0000
  C   C29       1.0  0.10685909464874747  0.24247485728774285  0.5990268305021388  1.0000
  C   C30       1.0  0.8931409048797081  0.7575251426826551  0.4009731694887197  1.0000
  C   C31       1.0  0.017009829029351043  0.12313619101761576  0.5701185564606781  1.0000
  C   C32       1.0  0.9829901704991049  0.8768638089527823  0.4298814435301805  1.0000
  C   C33       1.0  0.3317573320868846  0.2643363479377522  0.41811362047514705  1.0000
  C   C34       1.0  0.668242667441571  0.7356636520326458  0.5818863795157115  1.0000
  C   C35       1.0  0.43452381126238665  0.3188882062748629  0.40434718096327343  1.0000
  C   C36       1.0  0.5654761882660688  0.6811117936955351  0.5956528190275852  1.0000
  C   C37       1.0  0.6485222981272375  0.3677941375783782  0.4624923986262159  1.0000
  C   C38       1.0  0.35147770255932764  0.6322058623928654  0.5375076013643812  1.0000
  C   C39       1.0  0.5749307544861931  0.4368893019941995  0.4822039711198417  1.0000
  C   C40       1.0  0.4250692450422625  0.5631106979761986  0.5177960288710168  1.0000
  C   C41       1.0  0.5570192224458571  0.49049573558799986  0.4308319822643688  1.0000
  C   C42       1.0  0.442980778240708  0.5095042643832438  0.5691680177262284  1.0000
  C   C43       1.0  0.5175656662304909  0.4467177514031047  0.5514055779535842  1.0000
  C   C44       1.0  0.4824343332979647  0.5532822485672932  0.44859442203727423  1.0000
  C   C45       1.0  0.025565113295535038  0.5446724489806166  0.2668454836759808  1.0000
  C   C46       1.0  0.9744348862329206  0.4553275509897814  0.7331545163148778  1.0000
  C   C47       1.0  0.8490303985084797  0.5749568059399617  0.17624209135412264  1.0000
  C   C48       1.0  0.150969601019976  0.4250431940304364  0.8237579086367359  1.0000
  C   C49       1.0  0.684779412370463  0.6027600488151453  0.2001130447693605  1.0000
  C   C50       1.0  0.3152205871579925  0.3972399511552527  0.7998869552214981  1.0000
  C   C51       1.0  0.6804817811086934  0.6436819164881837  0.2650093334551042  1.0000
  C   C52       1.0  0.3195182195778717  0.3563180834830599  0.7349906665354929  1.0000
  C   C53       1.0  0.6297961918862374  0.6481147070692945  0.13988983199023827  1.0000
  C   C54       1.0  0.37020380764221833  0.3518852929011035  0.8601101680006202  1.0000
  C   C55       1.0  0.8610548635869886  0.46002030521071996  0.2485591037230986  1.0000
  C   C56       1.0  0.13894513594146693  0.5399796947596781  0.7514408962677599  1.0000
  C   C57       1.0  0.9456707468460817  0.4345576683226234  0.29928644015020944  1.0000
  C   C58       1.0  0.05432925266497518  0.5654423321736156  0.7007135598427477  1.0000
  C   C59       1.0  0.15710588011507975  0.48071108310878374  0.3612519319603466  1.0000
  C   C60       1.0  0.8428941194133759  0.5192889168616143  0.638748068030512  1.0000
  C   C61       1.0  0.07707211574307758  0.49100989561236746  0.4332779841260236  1.0000
  C   C62       1.0  0.9229278849434874  0.5089901043588761  0.5667220158645736  1.0000
  C   C63       1.0  0.03069260702019856  0.5583486248244656  0.45296838886180457  1.0000
  C   C64       1.0  0.9693073935143016  0.44165137510816854  0.5470316116471298  1.0000
  C   C65       1.0  0.04597633680193327  0.4326786559536979  0.48078243006944205  1.0000
  C   C66       1.0  0.9540236638846317  0.5673213440175455  0.5192175699211552  1.0000
  C   C67       1.0  0.40993681133571985  0.05072183191537976  0.27216545351126076  1.0000
  C   C68       1.0  0.5900631893508452  0.9492781680558638  0.7278345464793364  1.0000
  C   C69       1.0  0.22383654334989803  0.11176710946256956  0.19863143516503232  1.0000
  C   C70       1.0  0.7761634561785575  0.8882328905078284  0.8013685648258263  1.0000
  C   C71       1.0  0.28626388379113715  0.13981209139437606  0.1244615038910917  1.0000
  C   C72       1.0  0.7137361168954279  0.8601879085768674  0.8755384960995054  1.0000
  C   C73       1.0  0.1657869664618556  0.12413195177557203  0.0767472634199989  1.0000
  C   C74       1.0  0.8342130342247094  0.8758680481956715  0.9232527365705983  1.0000
  C   C75       1.0  0.323733850101163  0.21846471175769824  0.11805397461737317  1.0000
  C   C76       1.0  0.6762661505854022  0.7815352882135453  0.881946025373224  1.0000
  C   C77       1.0  0.39520823093362484  0.1678970766394327  0.275511734320561  1.0000
  C   C78       1.0  0.6047917685774319  0.8321029238568064  0.7244882656723961  1.0000
  C   C79       1.0  0.5009270053812845  0.14373875938202366  0.3178759975351009  1.0000
  C   C80       1.0  0.49907299414717105  0.8562612405883744  0.6821240024557577  1.0000
  C   C81       1.0  0.6118210705618115  0.025666178562376445  0.3531227186317843  1.0000
  C   C82       1.0  0.3881789301247537  0.974333821408867  0.6468772813588128  1.0000
  C   C83       1.0  0.55132848814793  0.0135304678198336  0.4291236750050888  1.0000
  C   C84       1.0  0.4486715125212363  0.9864695326772512  0.5708763249876069  1.0000
  C   C85       1.0  0.3994925122495548  0.9887367704965047  0.4511513573714186  1.0000
  C   C86       1.0  0.6005074872789007  0.011263229473893445  0.54884864261944  1.0000
  C   C87       1.0  0.6510478672316218  0.024827866730049136  0.4783447634481114  1.0000
  C   C88       1.0  0.34895213229683386  0.9751721332403488  0.5216552365427473  1.0000
  C   C89       1.0  0.11792588054979986  0.7602093895583264  0.7163198028424581  1.0000
  C   C90       1.0  0.8820741201367654  0.23979061041291708  0.283680197148139  1.0000
  C   C91       1.0  0.364299430340463  0.439384062244141  0.14560453388728103  1.0000
  C   C92       1.0  0.6357005703461021  0.5606159377271025  0.8543954661033162  1.0000
  C   C93       1.0  0.1866200888923504  0.13127765993146132  0.7930783905305316  1.0000
  C   C94       1.0  0.8133799106361052  0.8687223400389368  0.20692160946032698  1.0000
  N   N1        1.0  0.28047742902739936  0.7536754275949357  0.9508610899420874  1.0000
  N   N2        1.0  0.7195225705010563  0.24632457237546246  0.04913891004877127  1.0000
  N   N3        1.0  0.231701498060857  0.8659433270950073  0.9567555768236481  1.0000
  N   N4        1.0  0.7682985014675986  0.13405667287539064  0.043244423167210555  1.0000
  N   N5        1.0  0.36389055868209375  0.22853545563492747  0.47902474024754893  1.0000
  N   N6        1.0  0.6361094408463619  0.7714645443354705  0.5209752597433096  1.0000
  N   N7        1.0  0.5278987885359352  0.31560200399251764  0.4569544086797601  1.0000
  N   N8        1.0  0.4721012109925203  0.6843979959778803  0.5430455913110985  1.0000
  N   N9        1.0  0.9120172512650228  0.5282699444671138  0.22895371373369697  1.0000
  N   N10       1.0  0.08798274942154233  0.4717300555041296  0.7710462862569002  1.0000
  N   N11       1.0  0.04686478199678364  0.4874208396146243  0.3097480816491512  1.0000
  N   N12       1.0  0.953135217531672  0.5125791603557738  0.6902519183417074  1.0000
  N   N13       1.0  0.34024200248928615  0.10969959809895587  0.24713896556335965  1.0000
  N   N14       1.0  0.6597579981972789  0.8903004018722878  0.7528610344272375  1.0000
  N   N15       1.0  0.5095409966354907  0.0713118547729785  0.31481211911398177  1.0000
  N   N16       1.0  0.49045900289296496  0.9286881451974195  0.6851878808768767  1.0000
  O   O1        1.0  0.22915069722736728  0.8085824240098716  0.5914432975967521  1.0000
  O   O2        1.0  0.7708493023010883  0.19141757596052647  0.40855670239410646  1.0000
  O   O3        1.0  0.946514112085974  0.82200275589608  0.6296937776100885  1.0000
  O   O4        1.0  0.053485887442481624  0.17799724407431802  0.37030622238077016  1.0000
  O   O5        1.0  0.05387504740402977  0.7055588838058938  0.6039112007479251  1.0000
  O   O6        1.0  0.9461249521244258  0.29444111616450414  0.3960887992429334  1.0000
  O   O7        1.0  0.46716766213712746  0.447880823571268  0.2658171661272215  1.0000
  O   O8        1.0  0.5328323373913282  0.55211917639913  0.734182833863637  1.0000
  O   O9        1.0  0.3342426598900626  0.3388258442995529  0.2461638010310608  1.0000
  O   O10       1.0  0.6657573407965025  0.6611741556716906  0.7538361989595364  1.0000
  O   O11       1.0  0.5971742893515853  0.3662839444095886  0.1842575730480245  1.0000
  O   O12       1.0  0.40282571133497974  0.6337160555616549  0.8157424269425727  1.0000
  O   O13       1.0  0.9941639248139001  0.03681779265770666  0.8607519090903578  1.0000
  O   O14       1.0  0.005836075872665016  0.963182207313537  0.13924809090023926  1.0000
  O   O15       1.0  0.24509804948414984  0.9953996646433853  0.8025091703176546  1.0000
  O   O16       1.0  0.7549019512024152  0.004600335327858218  0.19749082967294254  1.0000
  O   O17       1.0  0.041161443541743975  0.037707798231144014  0.7330325881861001  1.0000
  O   O18       1.0  0.9588385571448212  0.9622922017400996  0.2669674118044971  1.0000
  O   O19       1.0  0.9164183154515274  0.9681035315450459  0.6242130887217024  1.0000
  O   O20       1.0  0.08358168523503776  0.03189646842619758  0.37578691126889474  1.0000
  F   F1        1.0  0.24323221422107877  0.7169660652739708  0.7215630240129323  1.0000
  F   F2        1.0  0.7567677864654863  0.28303393469727284  0.27843697597766487  1.0000
  F   F3        1.0  0.9928622772474514  0.729797726791104  0.7563904797354111  1.0000
  F   F4        1.0  0.007137723439113666  0.2702022731801396  0.24360952025518615  1.0000
  F   F5        1.0  0.1474406669235886  0.8221765726905655  0.7434369999630704  1.0000
  F   F6        1.0  0.852559332604867  0.1778234272798324  0.2565630000277882  1.0000
  F   F7        1.0  0.45929451623791534  0.49320997565843905  0.11636315550474173  1.0000
  F   F8        1.0  0.5407054844486497  0.5067900243128044  0.8836368444858553  1.0000
  F   F9        1.0  0.3471657972920199  0.39524191759121996  0.0951393772761904  1.0000
  F   F10       1.0  0.6528342022364356  0.604758082379178  0.9048606227146682  1.0000
  F   F11       1.0  0.2216742435562834  0.46748163584372826  0.16617541327770355  1.0000
  F   F12       1.0  0.7783257571302817  0.5325183641275152  0.8338245867128937  1.0000
  F   F13       1.0  0.2614909481629316  0.14141316680344518  0.8487379764714331  1.0000
  F   F14       1.0  0.7385090525236335  0.8585868331677984  0.15126202351916404  1.0000
  F   F15       1.0  0.07138063425639407  0.18045866807194177  0.7913991169717393  1.0000
  F   F16       1.0  0.9286193652720616  0.8195413318984562  0.2086008830191193  1.0000
  F   F17       1.0  0.289944608678975  0.14388412274939652  0.734661977796565  1.0000
  F   F18       1.0  0.7100553908494805  0.8561158772210016  0.26533802219429375  1.0000
  S   S1        1.0  0.08424797166502658  0.776061120430525  0.6242939821581377  1.0000
  S   S2        1.0  0.915752027863429  0.22393887953987296  0.3757060178327209  1.0000
  S   S3        1.0  0.449612980147496  0.39233717751013447  0.21926305054637443  1.0000
  S   S4        1.0  0.5503870193809596  0.6076628224602636  0.7807369494444841  1.0000
  S   S5        1.0  0.10684416795355287  0.039828773077945905  0.7979095756343016  1.0000
  S   S6        1.0  0.893155831422838  0.9601712268538426  0.20209042487489431  1.0000
  Br  Br1       1.0  0.3126906076812576  0.7808161127425441  0.25739124002702224  1.0000
  Br  Br2       1.0  0.6873093930053076  0.2191838872286993  0.7426087599635749  1.0000
  I   I1        1.0  0.26569494555541423  0.7937396866291861  0.10106442294529551  1.0000
  I   I2        1.0  0.7343050539730414  0.20626031334121198  0.898935577045563  1.0000
  I   I3        1.0  0.5732357601833525  0.23491754752267097  0.5952405660711992  1.0000
  I   I4        1.0  0.4267642393451031  0.765082452447727  0.40475943391965935  1.0000
  I   I5        1.0  0.1465507294593562  0.6405301448339501  0.2606672470107451  1.0000
  I   I6        1.0  0.8534492700690993  0.35946985513644797  0.7393327529801136  1.0000
  I   I7        1.0  0.3627418215604314  0.9466698547904581  0.25768429471345144  1.0000
  I   I8        1.0  0.6372581791261337  0.05333014518078537  0.7423157052771457  1.0000
