data_image0
_chemical_formula_structural       H76B4C132N24O4I4
_chemical_formula_sum              "H76 B4 C132 N24 O4 I4"
_cell_length_a       10.075014385805337
_cell_length_b       13.667369102315897
_cell_length_c       19.278842027243563
_cell_angle_alpha    90.0
_cell_angle_beta     97.8216790143877
_cell_angle_gamma    90.0

_space_group_name_H-M_alt    "P 1"
_space_group_IT_number       1

loop_
  _space_group_symop_operation_xyz
  'x, y, z'

loop_
  _atom_site_type_symbol
  _atom_site_label
  _atom_site_symmetry_multiplicity
  _atom_site_fract_x
  _atom_site_fract_y
  _atom_site_fract_z
  _atom_site_occupancy
  H   H1        1.0  0.8398943152132012  0.8229219622154054  0.9363929946120051  1.0000
  H   H2        1.0  0.660105684778743  0.3229219623001289  0.5636070055736798  1.0000
  H   H3        1.0  0.160105685398556  0.17707803761514757  0.06360700533798434  1.0000
  H   H4        1.0  0.3398943148401792  0.6770780375304241  0.43639299437522366  1.0000
  H   H5        1.0  0.06506221119114064  0.7995044677726916  0.8961414293509593  1.0000
  H   H6        1.0  0.4349377886411007  0.29950446785741514  0.6038585711423418  1.0000
  H   H7        1.0  0.9349377885620684  0.2004955320578613  0.10385857112151756  1.0000
  H   H8        1.0  0.5650622111121083  0.7004955319731376  0.39614142933013513  1.0000
  H   H9        1.0  0.2714070754603902  0.8480104549189423  0.9700288380022327  1.0000
  H   H10       1.0  0.2285929243718511  0.3480104550036659  0.5299711624910683  1.0000
  H   H11       1.0  0.7285929252856538  0.1519895449116105  0.029971162471330054  1.0000
  H   H12       1.0  0.7714070753813579  0.651989544826887  0.4700288379814085  1.0000
  H   H13       1.0  0.2650191653287735  0.9230801696767112  0.08811667191726114  1.0000
  H   H14       1.0  0.2349808339171266  0.4230801697614349  0.411883327794861  1.0000
  H   H15       1.0  0.7349808342901486  0.07691983088551121  0.9118833280316423  1.0000
  H   H16       1.0  0.7650191657017955  0.5769198308007877  0.5881166721540425  1.0000
  H   H17       1.0  0.2763525389987982  0.94623731847621  0.3467497457666296  1.0000
  H   H18       1.0  0.22364746038138877  0.4462373185609336  0.15325025446906587  1.0000
  H   H19       1.0  0.723647460620124  0.05376268135434282  0.6532502541822738  1.0000
  H   H20       1.0  0.7763525392375333  0.5537626812696193  0.8467497454798377  1.0000
  H   H21       1.0  0.29411331419824766  0.8991842378733726  0.47252741802599324  1.0000
  H   H22       1.0  0.20588668617477432  0.3991842379580962  0.027472582210788077  1.0000
  H   H23       1.0  0.7058866855549613  0.10081576195718027  0.5274725824464835  1.0000
  H   H24       1.0  0.7941133144369829  0.6008157618724568  0.9725274177392014  1.0000
  H   H25       1.0  0.09153711459266134  0.8700059734236018  0.5285896267035388  1.0000
  H   H26       1.0  0.4084628851052931  0.37000597350832537  0.9714103732661887  1.0000
  H   H27       1.0  0.9084628850262608  0.1299940264069511  0.47141037324536456  1.0000
  H   H28       1.0  0.591537114513629  0.6299940270538972  0.028589626682714715  1.0000
  H   H29       1.0  0.8630895316131708  0.8827137388098873  0.4598550732472912  1.0000
  H   H30       1.0  0.636910468919554  0.38271373889461097  0.04014492668187409  1.0000
  H   H31       1.0  0.1369104689985864  0.11728626175233514  0.5401449267026982  1.0000
  H   H32       1.0  0.36308953169220315  0.6172862616676116  0.9598550732681153  1.0000
  H   H33       1.0  0.44838933662598107  0.7655633356844833  0.3067485119693259  1.0000
  H   H34       1.0  0.05161066361275413  0.2655633357692069  0.19325148774388212  1.0000
  H   H35       1.0  0.5516106639857762  0.23443666414606956  0.6932514879806635  1.0000
  H   H36       1.0  0.948389336006168  0.734436664061346  0.8067485122050214  1.0000
  H   H37       1.0  0.29919481001221004  0.6459784464666269  0.2359609738502988  1.0000
  H   H38       1.0  0.2008051893679769  0.14597844655135048  0.26403902638539667  1.0000
  H   H39       1.0  0.7008051897409989  0.35402155336392593  0.764039026622178  1.0000
  H   H40       1.0  0.7991948102509453  0.8540215532792025  0.7359609735635068  1.0000
  H   H41       1.0  0.2910000900655491  0.6378236677988646  0.10746960519938979  1.0000
  H   H42       1.0  0.2089999103074729  0.1378236671519184  0.39253039503739157  1.0000
  H   H43       1.0  0.7089999095533731  0.36217633276335803  0.8925303947495139  1.0000
  H   H44       1.0  0.7910000903042843  0.8621763326786345  0.6074696049125978  1.0000
  H   H45       1.0  0.43559613147760845  0.747129291201313  0.045538194849817276  1.0000
  H   H46       1.0  0.06440386876112679  0.24712929128603647  0.45446180486339083  1.0000
  H   H47       1.0  0.5644038681413137  0.25287070862923994  0.9544618050990861  1.0000
  H   H48       1.0  0.9355961318506304  0.7528707085445164  0.5455381950865986  1.0000
  H   H49       1.0  0.35611944649626454  0.22453355046071036  0.21305776487476735  1.0000
  H   H50       1.0  0.14388055374247063  0.7245335503759868  0.28694223483844067  1.0000
  H   H51       1.0  0.6438805541154927  0.7754664493698425  0.786942235075222  1.0000
  H   H52       1.0  0.8561194458764515  0.2754664494545661  0.7130577651104628  1.0000
  H   H53       1.0  0.43946029581048335  0.25973544165120116  0.33729892536596107  1.0000
  H   H54       1.0  0.06053970356970361  0.7597354415664775  0.1627010748697344  1.0000
  H   H55       1.0  0.5605397038084388  0.7402645581793517  0.6627010745829424  1.0000
  H   H56       1.0  0.9394602960492187  0.24026455826407528  0.8372989250791691  1.0000
  H   H57       1.0  0.6774420787492142  0.2196868027432747  0.3852143695840303  1.0000
  H   H58       1.0  0.8225579217835106  0.7196868026585512  0.1147856303451349  1.0000
  H   H59       1.0  0.3225579218625429  0.7803131970872782  0.614785630365959  1.0000
  H   H60       1.0  0.17744207882824664  0.2803131971720017  0.8852143696048543  1.0000
  H   H61       1.0  0.8284614322933062  0.14841768118022655  0.3064992426544453  1.0000
  H   H62       1.0  0.6715385672465837  0.6484176810955029  0.1935007572736341  1.0000
  H   H63       1.0  0.17153856732561606  0.851582319381996  0.6935007572944583  1.0000
  H   H64       1.0  0.3284614323723385  0.35158231873504986  0.8064992426752694  1.0000
  H   H65       1.0  0.604814350731374  0.8741656525523644  0.4316335334661948  1.0000
  H   H66       1.0  0.8951856488085158  0.37416565263708806  0.06836646646188446  1.0000
  H   H67       1.0  0.3951856488875481  0.12583434727818837  0.5683664664827086  1.0000
  H   H68       1.0  0.10481435081040638  0.6258343471934648  0.9316335334870189  1.0000
  H   H69       1.0  0.538537202419102  0.03374992996434396  0.37749363688753734  1.0000
  H   H70       1.0  0.9614627971207876  0.5337499306112901  0.12250636304054204  1.0000
  H   H71       1.0  0.4614627971998202  0.9662500698662089  0.6225063630613662  1.0000
  H   H72       1.0  0.0385372024981344  0.4662500699509325  0.8774936369083616  1.0000
  H   H73       1.0  0.4346293756151412  0.16110993077862265  0.44573085616302205  1.0000
  H   H74       1.0  0.06537062475788083  0.661109930693899  0.0542691440737593  1.0000
  H   H75       1.0  0.565370624996616  0.8388900690519302  0.5542691437869673  1.0000
  H   H76       1.0  0.9346293758538764  0.3388900691366538  0.9457308558762302  1.0000
  B   B1        1.0  0.7945081951276847  0.9974060880297811  0.18592748808542567  1.0000
  B   B2        1.0  0.7054918054050403  0.49740608811450476  0.3140725118437396  1.0000
  B   B3        1.0  0.2054918044912376  0.0025939118007717206  0.8140725118634778  1.0000
  B   B4        1.0  0.29450819520671695  0.5025939117160482  0.6859274881062498  1.0000
  C   C1        1.0  0.8168367603192543  0.9138322632907938  0.0721451452194214  1.0000
  C   C2        1.0  0.6831632402134705  0.4138322633755174  0.4278548547097438  1.0000
  C   C3        1.0  0.18316324029250283  0.0861677365397591  0.927854854730568  1.0000
  C   C4        1.0  0.3168367603982867  0.5861677364550356  0.5721451452402455  1.0000
  C   C5        1.0  0.9272062640598742  0.8902124797330864  0.03350688631528915  1.0000
  C   C6        1.0  0.5727937364728507  0.3902124798178099  0.46649311361387613  1.0000
  C   C7        1.0  0.07279373655188305  0.10978752082913627  0.9664931136347003  1.0000
  C   C8        1.0  0.4272062631460715  0.6097875207444127  0.5335068863350274  1.0000
  C   C9        1.0  0.9321189618018512  0.8446435794321157  0.9690274377898292  1.0000
  C   C10       1.0  0.5678810381900931  0.3446435795168392  0.5309725623958554  1.0000
  C   C11       1.0  0.06788103795135779  0.15535642039843722  0.03097256268264748  1.0000
  C   C12       1.0  0.43211896242166425  0.6553564203137137  0.46902743755413384  1.0000
  C   C13       1.0  0.057261543551795836  0.8308461522470953  0.9473651359458487  1.0000
  C   C14       1.0  0.4427384561461587  0.3308461523318189  0.5526348640238791  1.0000
  C   C15       1.0  0.9427384570599614  0.16915384758345756  0.052634864004140726  1.0000
  C   C16       1.0  0.5572615434727636  0.669153847498734  0.44736513592502447  1.0000
  C   C17       1.0  0.17602232932848608  0.8586549424505879  0.989729446587066  1.0000
  C   C18       1.0  0.32397767136230354  0.35865494253531155  0.5102705533837476  1.0000
  C   C19       1.0  0.8239776712832712  0.14134505737996492  0.010270553362923453  1.0000
  C   C20       1.0  0.6760223292494537  0.6413450572952414  0.4897294465662418  1.0000
  C   C21       1.0  0.17320715449942367  0.9014347368369798  0.05514839686976149  1.0000
  C   C22       1.0  0.32679284488076327  0.40143473692170345  0.444851603365934  1.0000
  C   C23       1.0  0.8267928451194985  0.098565262993573  0.944851603079142  1.0000
  C   C24       1.0  0.6732071547381588  0.5985652629088495  0.5551483965829694  1.0000
  C   C25       1.0  0.04865297252920179  0.9185663207026943  0.07676040008266984  1.0000
  C   C26       1.0  0.4513470277095334  0.41856632005574823  0.42323959963053814  1.0000
  C   C27       1.0  0.9513470270897203  0.0814336798595282  0.9232395998662335  1.0000
  C   C28       1.0  0.5486529729022238  0.5814336797748046  0.5767604003194512  1.0000
  C   C29       1.0  0.011134946683786477  0.9580129688442629  0.14141454460186076  1.0000
  C   C30       1.0  0.4888650535549487  0.45801296892898646  0.35858545511134726  1.0000
  C   C31       1.0  0.9888650539279706  0.04198703098628999  0.8585854553481285  1.0000
  C   C32       1.0  0.5111349460639734  0.5419870309015664  0.6414145448375562  1.0000
  C   C33       1.0  0.015944858347014017  0.9689470007622768  0.2604773250716547  1.0000
  C   C34       1.0  0.48405514089888607  0.4689470008470004  0.23952267464046734  1.0000
  C   C35       1.0  0.9840551412719082  0.031052999068276018  0.7395226748772488  1.0000
  C   C36       1.0  0.515944858720036  0.5310529989835524  0.760477325308436  1.0000
  C   C37       1.0  0.059643497026871446  0.9448894526315041  0.33348267659843106  1.0000
  C   C38       1.0  0.4403565023533155  0.44488945271622776  0.16651732363726443  1.0000
  C   C39       1.0  0.9403565025920506  0.05511054719904869  0.6665173233504724  1.0000
  C   C40       1.0  0.5596434972656067  0.5551105471143252  0.8334826763116391  1.0000
  C   C41       1.0  0.18674546407615117  0.9333767870393136  0.3713688864670732  1.0000
  C   C42       1.0  0.3132545362968709  0.43337678712403727  0.12863111376970815  1.0000
  C   C43       1.0  0.8132545365356061  0.06662321279123921  0.6286311134829161  1.0000
  C   C44       1.0  0.6867454634563381  0.5666232127065156  0.8713688867027688  1.0000
  C   C45       1.0  0.19586389910659552  0.906773152698423  0.4416923339824994  1.0000
  C   C46       1.0  0.3041361011321397  0.4067731527831465  0.05830766573070866  1.0000
  C   C47       1.0  0.8041361005123266  0.09322684713212993  0.5583076659664041  1.0000
  C   C48       1.0  0.6958638994796176  0.5932268470474062  0.9416923342192808  1.0000
  C   C49       1.0  0.08046580831809183  0.8899180148679121  0.4733947292069481  1.0000
  C   C50       1.0  0.41953419192064334  0.3899180149526356  0.02660527050625996  1.0000
  C   C51       1.0  0.9195341922936654  0.1100819849626408  0.5266052707430413  1.0000
  C   C52       1.0  0.5804658086911139  0.6100819848779172  0.9733947294437295  1.0000
  C   C53       1.0  0.952625706697512  0.8972528881159766  0.4355645233829928  1.0000
  C   C54       1.0  0.5473742928423779  0.3972528882007001  0.06443547654508659  1.0000
  C   C55       1.0  0.04737429292141027  0.10274711171457632  0.5644354765659108  1.0000
  C   C56       1.0  0.45262570677654423  0.6027471116298527  0.9355645234038168  1.0000
  C   C57       1.0  0.9415517670357085  0.9254248381904613  0.3654535351490019  1.0000
  C   C58       1.0  0.5584482325041814  0.42542483827518496  0.13454646477907745  1.0000
  C   C59       1.0  0.05844823258321367  0.07457516164009148  0.6345464647999015  1.0000
  C   C60       1.0  0.44155176711474087  0.5745751615553679  0.865453535169826  1.0000
  C   C61       1.0  0.8270900790544391  0.9357871711998188  0.3109208184355626  1.0000
  C   C62       1.0  0.6729099214782857  0.43578717128454236  0.18907918149360267  1.0000
  C   C63       1.0  0.17290992155731802  0.06421282863073403  0.6890791815144267  1.0000
  C   C64       1.0  0.32709007913347155  0.5642128285460105  0.8109208184563866  1.0000
  C   C65       1.0  0.6326258021044634  0.89101197083618  0.2416781062325848  1.0000
  C   C66       1.0  0.8673741984282616  0.3910119709209036  0.25832189369658043  1.0000
  C   C67       1.0  0.36737419850729386  0.10898802972604252  0.7583218937174045  1.0000
  C   C68       1.0  0.13262580218349573  0.608988029641319  0.7416781062534089  1.0000
  C   C69       1.0  0.5242585672238275  0.8244976422046397  0.21576756578255285  1.0000
  C   C70       1.0  0.9757414323160625  0.3244976422893633  0.2842324341455265  1.0000
  C   C71       1.0  0.47574143239509475  0.17550235762591312  0.7842324341663507  1.0000
  C   C72       1.0  0.02425856730285978  0.6755023575411895  0.715767565803377  1.0000
  C   C73       1.0  0.4439126392054571  0.762626654184223  0.2500240480287109  1.0000
  C   C74       1.0  0.056087361033278126  0.2626266542689466  0.24997595168449707  1.0000
  C   C75       1.0  0.5560873604134651  0.23737334637799956  0.7499759519201926  1.0000
  C   C76       1.0  0.943912639578479  0.7373733462932759  0.7500240482654923  1.0000
  C   C77       1.0  0.36077980905119117  0.6961195946912606  0.2101430744953068  1.0000
  C   C78       1.0  0.13922019019470894  0.19611959404431445  0.28985692521681533  1.0000
  C   C79       1.0  0.6392201905677309  0.30388040587096193  0.7898569254535966  1.0000
  C   C80       1.0  0.8607798094242132  0.8038804057862384  0.7101430747320882  1.0000
  C   C81       1.0  0.3567921217717534  0.6909052553793937  0.1369818807552024  1.0000
  C   C82       1.0  0.14320787760843354  0.19090525546411732  0.36301811948049306  1.0000
  C   C83       1.0  0.6432078778471687  0.3090947451828288  0.863018119193701  1.0000
  C   C84       1.0  0.8567921220104886  0.8090947450981052  0.6369818804684104  1.0000
  C   C85       1.0  0.4370008181910279  0.7513930452247647  0.1020189576713333  1.0000
  C   C86       1.0  0.06299918218199414  0.25139304530948825  0.39798104256544803  1.0000
  C   C87       1.0  0.5629991814278943  0.2486069546057882  0.8979810422775701  1.0000
  C   C88       1.0  0.937000818429763  0.7486069552527344  0.6020189573845413  1.0000
  C   C89       1.0  0.5207818707639451  0.8185260847388967  0.14112999833369874  1.0000
  C   C90       1.0  0.9792181289102315  0.31852608482362027  0.35887000211795395  1.0000
  C   C91       1.0  0.47921812898926386  0.18147391509165614  0.8588700021387781  1.0000
  C   C92       1.0  0.020781870842977453  0.6814739150069326  0.6411299983545229  1.0000
  C   C93       1.0  0.6265875406484456  0.881501596233216  0.12241461543391319  1.0000
  C   C94       1.0  0.8734124598842794  0.3815015963179396  0.37758538449525203  1.0000
  C   C95       1.0  0.3734124599633117  0.11849840432900653  0.8775853845160762  1.0000
  C   C96       1.0  0.1265875407274779  0.6184984042442829  0.6224146154547374  1.0000
  C   C97       1.0  0.6764169704011777  0.1413102774602568  0.21703851482965886  1.0000
  C   C98       1.0  0.8235830301315471  0.6413102773755331  0.2829614850995064  1.0000
  C   C99       1.0  0.3235830302105795  0.8586897231019658  0.7829614851203305  1.0000
  C   C100      1.0  0.17641696948737498  0.35868972318668935  0.7170385148493971  1.0000
  C   C101      1.0  0.5422197246084142  0.16239298532033605  0.1911813085824538  1.0000
  C   C102      1.0  0.9577802749314757  0.6623929852356124  0.30881869134562556  1.0000
  C   C103      1.0  0.45778027501050783  0.8376070145102168  0.8088186913664496  1.0000
  C   C104      1.0  0.042219724687446586  0.33760701459494036  0.6911813086032779  1.0000
  C   C105      1.0  0.4587314164653117  0.20630003030519095  0.23430952193109422  1.0000
  C   C106      1.0  0.04126858390771041  0.7063000302204674  0.26569047830568715  1.0000
  C   C107      1.0  0.5412685832878974  0.7936999695253619  0.7656904785413826  1.0000
  C   C108      1.0  0.9587314167040468  0.29369996961008543  0.7343095216443022  1.0000
  C   C109      1.0  0.5064296278110587  0.22666770077022808  0.3041450588695876  1.0000
  C   C110      1.0  0.9935703717288311  0.7266677006855045  0.19585494105849183  1.0000
  C   C111      1.0  0.49357037180786345  0.7733322990603249  0.6958549410793159  1.0000
  C   C112      1.0  0.006429627890091105  0.27333229914504836  0.8041450588904117  1.0000
  C   C113      1.0  0.6392703472965124  0.20503451022809951  0.3305573078540594  1.0000
  C   C114      1.0  0.8607296532362123  0.7050345101433759  0.16944269207510587  1.0000
  C   C115      1.0  0.3607296523224097  0.7949654896024533  0.6694426920948441  1.0000
  C   C116      1.0  0.1392703473755448  0.29496548968717695  0.8305573078748835  1.0000
  C   C117      1.0  0.7239714739296244  0.16398885719858247  0.28702349354241974  1.0000
  C   C118      1.0  0.7760285256102654  0.6639888571138589  0.21297650638565963  1.0000
  C   C119      1.0  0.27602852568929775  0.8360111426319704  0.7129765064064837  1.0000
  C   C120      1.0  0.22397147400865677  0.3360111427166939  0.7870234935632439  1.0000
  C   C121      1.0  0.5588711717826566  0.9289194946706106  0.46188313511291584  1.0000
  C   C122      1.0  0.9411288287500684  0.42891949475533425  0.038116864816249416  1.0000
  C   C123      1.0  0.44112882882910065  0.07108050515994223  0.5381168648370735  1.0000
  C   C124      1.0  0.05887117186168889  0.5710805050752187  0.96188313513374  1.0000
  C   C125      1.0  0.5209864717919424  0.01897894086697686  0.43103780553468946  1.0000
  C   C126      1.0  0.9790135287407825  0.518978941513923  0.06896219439447576  1.0000
  C   C127      1.0  0.47901352881981496  0.981021058963576  0.5689621944152999  1.0000
  C   C128      1.0  0.020986471870974712  0.4810210590482996  0.9310378055555137  1.0000
  C   C129      1.0  0.4623600927155374  0.09014447043734515  0.46922119842574417  1.0000
  C   C130      1.0  0.0376399066646496  0.5901444710842912  0.030778801809951205  1.0000
  C   C131      1.0  0.5376399069033848  0.9098555293932077  0.5307788015231593  1.0000
  C   C132      1.0  0.9623600929542725  0.4098555294779313  0.9692211981389524  1.0000
  N   N1        1.0  0.6906770265630084  0.8795688431333144  0.065555064156308  1.0000
  N   N2        1.0  0.8093229729768815  0.3795688432180381  0.4344449357717714  1.0000
  N   N3        1.0  0.3093229730559137  0.12043115669723839  0.9344449357925955  1.0000
  N   N4        1.0  0.19067702664204078  0.6204311566125148  0.5655550641771321  1.0000
  N   N5        1.0  0.8738675370374114  0.9617206231572948  0.1312146217587941  1.0000
  N   N6        1.0  0.6261324625024786  0.4617206232420183  0.3687853781692853  1.0000
  N   N7        1.0  0.12613246258151084  0.03827937667325813  0.8687853781901094  1.0000
  N   N8        1.0  0.37386753711644366  0.5382793765885345  0.6312146217796182  1.0000
  N   N9        1.0  0.08331126926774865  0.968028560650941  0.20493046417919195  1.0000
  N   N10       1.0  0.4166887309709865  0.4680285607356645  0.29506953553401605  1.0000
  N   N11       1.0  0.9166887313440086  0.031971439911281645  0.7950695357707974  1.0000
  N   N12       1.0  0.5833112686479356  0.531971439826558  0.7049304644148874  1.0000
  N   N13       1.0  0.8787978764899492  0.9723661394165539  0.25382577186191124  1.0000
  N   N14       1.0  0.6212021230499406  0.4723661395012775  0.2461742280661681  1.0000
  N   N15       1.0  0.1212021231289729  0.027633860413998977  0.7461742280869922  1.0000
  N   N16       1.0  0.37879787656898156  0.5276338603292754  0.7538257718827353  1.0000
  N   N17       1.0  0.702132404485734  0.8997594517233204  0.30610000665067016  1.0000
  N   N18       1.0  0.7978675960469909  0.39975945107637423  0.1938999932784951  1.0000
  N   N19       1.0  0.2978675961260232  0.10024054883890222  0.6938999932993192  1.0000
  N   N20       1.0  0.20213240456476633  0.6002405487541786  0.8061000066714943  1.0000
  N   N21       1.0  0.6778424132803279  0.9284607165434481  0.18301112540489237  1.0000
  N   N22       1.0  0.822157587252397  0.4284607166281716  0.3169888745242728  1.0000
  N   N23       1.0  0.3221575873314294  0.07153928328710478  0.8169888745450969  1.0000
  N   N24       1.0  0.17784241335936019  0.5715392832023812  0.6830111254257165  1.0000
  O   O1        1.0  0.7595242350135748  0.1002402722677515  0.1748421219312551  1.0000
  O   O2        1.0  0.7404757656534369  0.6002402721830279  0.3251578785214835  1.0000
  O   O3        1.0  0.24047576559818246  0.8997597275628013  0.8251578780187342  1.0000
  O   O4        1.0  0.25952423409977204  0.39975972764752493  0.6748421219509934  1.0000
  I   I1        1.0  0.46261270146029637  0.12814689549162941  0.0872078722319368  1.0000
  I   I2        1.0  0.03738729891272562  0.6281468954069058  0.41279212800484455  1.0000
  I   I3        1.0  0.5373872991514608  0.8718531050705932  0.9127921277180525  1.0000
  I   I4        1.0  0.9626127008404834  0.37185310442364705  0.5872078724676323  1.0000
