data_image0
_chemical_formula_structural       H84C16N16O8
_chemical_formula_sum              "H84 C16 N16 O8"
_cell_length_a       8.235681821604635
_cell_length_b       8.281864905854214
_cell_length_c       13.612504717485615
_cell_angle_alpha    90.0
_cell_angle_beta     91.92310992366325
_cell_angle_gamma    90.0

_space_group_name_H-M_alt    "P 1"
_space_group_IT_number       1

loop_
  _space_group_symop_operation_xyz
  'x, y, z'

loop_
  _atom_site_type_symbol
  _atom_site_label
  _atom_site_symmetry_multiplicity
  _atom_site_fract_x
  _atom_site_fract_y
  _atom_site_fract_z
  _atom_site_occupancy
  H   H1        1.0  0.21750281553064602  0.7668154627239692  0.6688967401302452  1.0000
  H   H2        1.0  0.2824971836217861  0.26681546186994737  0.8311032599440583  1.0000
  H   H3        1.0  0.7824971837508834  0.23318453777661693  0.33110325987495787  1.0000
  H   H4        1.0  0.7175028156597433  0.7331845374231812  0.16889674006114494  1.0000
  H   H5        1.0  0.06199829105614259  0.9159332802733755  0.6459807906791577  1.0000
  H   H6        1.0  0.4380017080962896  0.4159332806268112  0.854019209395146  1.0000
  H   H7        1.0  0.9380017082253869  0.08406671901975309  0.3540192093260456  1.0000
  H   H8        1.0  0.5619982911852398  0.5840667186663173  0.14598079061005725  1.0000
  H   H9        1.0  0.035979185261430846  0.7130596498652854  0.5995058512600419  1.0000
  H   H10       1.0  0.4640208138910013  0.21305965021872106  0.9004941488142617  1.0000
  H   H11       1.0  0.9640208140200986  0.2869403506353007  0.4004941487451613  1.0000
  H   H12       1.0  0.5359791853905281  0.786940350281865  0.09950585119094146  1.0000
  H   H13       1.0  0.04075586951241688  0.9737356865480313  0.812099578224699  1.0000
  H   H14       1.0  0.45924413085492777  0.4737356869014671  0.6879004218748532  1.0000
  H   H15       1.0  0.959244130984025  0.026264312745097194  0.1879004218057528  1.0000
  H   H16       1.0  0.5407558696415141  0.5262643123916615  0.3120995781555986  1.0000
  H   H17       1.0  0.19973344836994134  0.8314469770126933  0.8437253903022021  1.0000
  H   H18       1.0  0.3002665519974033  0.33144697736612905  0.6562746097973501  1.0000
  H   H19       1.0  0.8002665521265007  0.16855302228043523  0.15627460972824966  1.0000
  H   H20       1.0  0.699733447284126  0.6685530231344571  0.34372539020785314  1.0000
  H   H21       1.0  0.006444938137566926  0.8170922632674879  0.9009591550287194  1.0000
  H   H22       1.0  0.4935550622297777  0.3170922624134661  0.5990408450708328  1.0000
  H   H23       1.0  0.9935550623588749  0.18290773723309817  0.09904084500173245  1.0000
  H   H24       1.0  0.5064449382666641  0.6829077368796624  0.4009591549596189  1.0000
  H   H25       1.0  0.9856393593522952  0.5386819189535972  0.8445525919567107  1.0000
  H   H26       1.0  0.5143606413928489  0.038681919307032867  0.6554474077216674  1.0000
  H   H27       1.0  0.014360641144146643  0.4613180803395314  0.15544740807374105  1.0000
  H   H28       1.0  0.4856393591035929  0.9613180799860956  0.3445525923087842  1.0000
  H   H29       1.0  0.18290513421481383  0.5650990608035382  0.7916697548822111  1.0000
  H   H30       1.0  0.31709486615253074  0.06509905994951647  0.708330245217341  1.0000
  H   H31       1.0  0.8170948662816281  0.43490093969704785  0.2083302451482406  1.0000
  H   H32       1.0  0.6829051331289987  0.9349009393436121  0.29166975478786217  1.0000
  H   H33       1.0  0.013572341945720304  0.4910007028882561  0.7173113112963924  1.0000
  H   H34       1.0  0.4864276572067118  0.991000703742278  0.7826886887779111  1.0000
  H   H35       1.0  0.9864276573358091  0.5089992964048724  0.28268868870881075  1.0000
  H   H36       1.0  0.5135723420748175  0.008999296758308167  0.21731131122729205  1.0000
  H   H37       1.0  0.7989913785146934  0.8801163376678133  0.7168198686875878  1.0000
  H   H38       1.0  0.7010086210155383  0.3801163368137915  0.7831801309655418  1.0000
  H   H39       1.0  0.201008620766836  0.11988366283277278  0.2831801313176154  1.0000
  H   H40       1.0  0.29899137948186627  0.619883662479337  0.21681986833031106  1.0000
  H   H41       1.0  0.7878507710318708  0.6723133839172061  0.6807509757223337  1.0000
  H   H42       1.0  0.7121492284983608  0.17231338427064183  0.8192490239307961  1.0000
  H   H43       1.0  0.21214922824965857  0.32768661658337994  0.3192490242828697  1.0000
  H   H44       1.0  0.28785077199808107  0.8276866162299442  0.18075097609965562  1.0000
  H   H45       1.0  0.7709291787563095  0.725851215678574  0.8080903200789834  1.0000
  H   H46       1.0  0.7290708207739223  0.22585121482455223  0.6919096795741462  1.0000
  H   H47       1.0  0.22907082052522007  0.27414878482201205  0.19190967992621974  1.0000
  H   H48       1.0  0.2709291785076071  0.7741487844685764  0.30809032043105705  1.0000
  H   H49       1.0  0.16918874270784504  0.44072758629760866  0.5184359695068625  1.0000
  H   H50       1.0  0.3308112576594996  0.9407275859441729  0.9815640305926896  1.0000
  H   H51       1.0  0.8308112577885969  0.5592724142029774  0.4815640305235892  1.0000
  H   H52       1.0  0.6691887428369423  0.059272414556413085  0.018435969437762153  1.0000
  H   H53       1.0  0.29863011697145536  0.591933411825481  0.5088779627325186  1.0000
  H   H54       1.0  0.2013698821809768  0.09193341097145911  0.9911220373417851  1.0000
  H   H55       1.0  0.701369882310074  0.40806658867510515  0.49112203727268455  1.0000
  H   H56       1.0  0.7986301171005527  0.9080665883216694  0.00887796266341827  1.0000
  H   H57       1.0  0.13214544348387597  0.5882554720925509  0.4389447183460251  1.0000
  H   H58       1.0  0.36785455676482637  0.0882554724459866  0.061055281301901326  1.0000
  H   H59       1.0  0.8678545570125659  0.41174452720057764  0.5610552816844266  1.0000
  H   H60       1.0  0.6321454437316155  0.9117445280545995  0.9389447187285505  1.0000
  H   H61       1.0  0.35447016554793165  0.41506315897161417  0.062418665455060786  1.0000
  H   H62       1.0  0.14552983469980793  0.9150631586181784  0.4375813349274646  1.0000
  H   H63       1.0  0.6455298349485102  0.5849368415289719  0.937581334575391  1.0000
  H   H64       1.0  0.8544701645817214  0.08493684188240762  0.5624186650777386  1.0000
  H   H65       1.0  0.30812445256099535  0.5657690620729477  0.9887762938293886  1.0000
  H   H66       1.0  0.1918755478063493  0.06576906242638345  0.5112237062701636  1.0000
  H   H67       1.0  0.6918755479354466  0.43423093722018086  0.011223706201063142  1.0000
  H   H68       1.0  0.8081244514751801  0.9342309380742025  0.48877629373503967  1.0000
  H   H69       1.0  0.1912629016753882  0.4032207054765479  0.9907895223205962  1.0000
  H   H70       1.0  0.3087370986919564  0.9032207051231121  0.509210477778956  1.0000
  H   H71       1.0  0.8087370988210537  0.5967792938165807  0.009210477709855612  1.0000
  H   H72       1.0  0.6912629018044854  0.09677929417001638  0.49078952225149575  1.0000
  H   H73       1.0  0.07997942369239049  0.8584794271365472  0.07144414971761283  1.0000
  H   H74       1.0  0.42002057655534913  0.3584794274899829  0.4285558506649125  1.0000
  H   H75       1.0  0.9200205768040514  0.14152057336403887  0.9285558503128389  1.0000
  H   H76       1.0  0.5799794239410928  0.6415205730106031  0.5714441493655392  1.0000
  H   H77       1.0  0.07545984379530819  0.6633027938087813  0.06986956990043394  1.0000
  H   H78       1.0  0.424540155237519  0.16330279416221707  0.43013043045684285  1.0000
  H   H79       1.0  0.9245401554862211  0.3366972066918047  0.9301304301047691  1.0000
  H   H80       1.0  0.5754598440440105  0.836697206338369  0.5698695695483603  1.0000
  H   H81       1.0  0.9817776827413669  0.7612162685174539  0.15569127673897995  1.0000
  H   H82       1.0  0.5182223166692598  0.2612162676634322  0.34430872319712286  1.0000
  H   H83       1.0  0.01822231654016251  0.23878373198313207  0.8443087232662233  1.0000
  H   H84       1.0  0.4817776838271821  0.7387837316296963  0.655691276833329  1.0000
  C   C1        1.0  0.08666455441364995  0.7876910459368502  0.6593537076019386  1.0000
  C   C2        1.0  0.41333544473878225  0.287691046290286  0.8406462924723651  1.0000
  C   C3        1.0  0.9133354448678795  0.21230895335627825  0.34064629240326455  1.0000
  C   C4        1.0  0.5866645545427472  0.7123089542103  0.1593537075328382  1.0000
  C   C5        1.0  0.06853418263181119  0.8494979705629897  0.8338935366738008  1.0000
  C   C6        1.0  0.43146581773553344  0.34949796970896785  0.6661064634257513  1.0000
  C   C7        1.0  0.9314658178646308  0.15050202993759643  0.16610646335665089  1.0000
  C   C8        1.0  0.5685341827609084  0.6505020295841607  0.3338935366047005  1.0000
  C   C9        1.0  0.050867420023086175  0.570100861783257  0.7784549375379429  1.0000
  C   C10       1.0  0.44913257912934595  0.07010086213669274  0.7215450625363606  1.0000
  C   C11       1.0  0.9491325792584433  0.4298991375098716  0.22154506246726022  1.0000
  C   C12       1.0  0.5508674201521835  0.9298991383638934  0.2784549374688426  1.0000
  C   C13       1.0  0.8276166684206344  0.7561252328051719  0.7390407661662282  1.0000
  C   C14       1.0  0.6723833323245098  0.2561252331586076  0.7609592335121501  1.0000
  C   C15       1.0  0.17238333207580744  0.24387476769541425  0.26095923386422365  1.0000
  C   C16       1.0  0.32761666817193213  0.7438747673419785  0.2390407665183017  1.0000
  N   N1        1.0  0.008024829120743225  0.7408729180866946  0.7527433785888479  1.0000
  N   N2        1.0  0.4919751712466014  0.24087291723267285  0.7472566215107043  1.0000
  N   N3        1.0  0.9919751713756986  0.25912708241389143  0.24725662144160382  1.0000
  N   N4        1.0  0.508024828034928  0.7591270820604558  0.252743378494499  1.0000
  N   N5        1.0  0.2226334301964596  0.5159486852990715  0.46902726042188686  1.0000
  N   N6        1.0  0.2773665688373303  0.01594868444504969  0.03097273920079103  1.0000
  N   N7        1.0  0.7773665690850698  0.4840513152015146  0.5309727395833164  1.0000
  N   N8        1.0  0.7226334304441991  0.984051314848079  0.9690272608044123  1.0000
  N   N9        1.0  0.25817608439056977  0.4817153775570446  0.034294819338679366  1.0000
  N   N10       1.0  0.24182391585716984  0.9817153772036088  0.46570518104384595  1.0000
  N   N11       1.0  0.7418239148909597  0.5182846229435415  0.9657051806665239  1.0000
  N   N12       1.0  0.758176084639272  0.018284623296977217  0.5342948189866058  1.0000
  N   N13       1.0  0.0026309855691977954  0.7622832721573894  0.08161465222152059  1.0000
  N   N14       1.0  0.4973690146795045  0.2622832725108251  0.4183853474264059  1.0000
  N   N15       1.0  0.9973690149272441  0.23771672713573913  0.9183853478089312  1.0000
  N   N16       1.0  0.5026309858169374  0.7377167279897608  0.581614652604046  1.0000
  O   O1        1.0  0.06541533726298725  0.18572549993090604  0.6968361987022054  1.0000
  O   O2        1.0  0.43458466188944495  0.6857254995774703  0.8031638013720982  1.0000
  O   O3        1.0  0.9345846620185422  0.8142745005696801  0.30316380130299786  1.0000
  O   O4        1.0  0.5654153373920845  0.3142744997156582  0.19683619863310503  1.0000
  O   O5        1.0  0.04215392704265177  0.2465161377550172  0.604940608095968  1.0000
  O   O6        1.0  0.45784607211074313  0.7465161374015814  0.8950593912437368  1.0000
  O   O7        1.0  0.9578460722388777  0.7534838627455689  0.3950593919092353  1.0000
  O   O8        1.0  0.5421539271707864  0.2534838630990046  0.10494060876146646  1.0000
