data_image0
_chemical_formula_structural       H106C126N10O6
_chemical_formula_sum              "H106 C126 N10 O6"
_cell_length_a       13.60278561848447
_cell_length_b       14.857108963722146
_cell_length_c       13.327093627678243
_cell_angle_alpha    111.70936188163891
_cell_angle_beta     103.48015323091609
_cell_angle_gamma    90.95657702437643

_space_group_name_H-M_alt    "P 1"
_space_group_IT_number       1

loop_
  _space_group_symop_operation_xyz
  'x, y, z'

loop_
  _atom_site_type_symbol
  _atom_site_label
  _atom_site_symmetry_multiplicity
  _atom_site_fract_x
  _atom_site_fract_y
  _atom_site_fract_z
  _atom_site_occupancy
  H   H1        1.0  0.36379775030765  0.6357177352280343  0.450674184706689  1.0000
  H   H2        1.0  0.6362022491501447  0.36428226441679673  0.5493258151071776  1.0000
  H   H3        1.0  0.4621255618700141  0.6468865015884515  0.3175179945861006  1.0000
  H   H4        1.0  0.5378744383440153  0.35311349805952946  0.6824820053966385  1.0000
  H   H5        1.0  0.5241593327895016  0.742549489188511  0.2248913467608949  1.0000
  H   H6        1.0  0.4758406674950615  0.2574505111853881  0.7751086527844088  1.0000
  H   H7        1.0  0.5430331422827324  0.9003918266247519  0.2009844858209535  1.0000
  H   H8        1.0  0.456966857931297  0.09960817302322889  0.7990155141617855  1.0000
  H   H9        1.0  0.5103030830593233  0.07124841839891596  0.2501553176702597  1.0000
  H   H10       1.0  0.4896969171547062  0.9287515812490649  0.7498446823124794  1.0000
  H   H11       1.0  0.42885984587619924  0.21070817380170104  0.35688176011313244  1.0000
  H   H12       1.0  0.5711401544211893  0.7892918265754757  0.6431182401868164  1.0000
  H   H13       1.0  0.30054234381763995  0.27928039556230355  0.37703862980143776  1.0000
  H   H14       1.0  0.6994576564797487  0.7207196048148732  0.6229613704985111  1.0000
  H   H15       1.0  0.2132067239253926  0.41553970906377097  0.47786325087650783  1.0000
  H   H16       1.0  0.7867932763719959  0.5844602913134057  0.5221367494234411  1.0000
  H   H17       1.0  0.21680463979699283  0.29207601682822415  0.725379302069566  1.0000
  H   H18       1.0  0.7831953604170365  0.7079239828197568  0.27462069791317306  1.0000
  H   H19       1.0  0.30027579783300484  0.1545589935450267  0.6210384926772503  1.0000
  H   H20       1.0  0.6997242023810246  0.8454410061029541  0.3789615073054889  1.0000
  H   H21       1.0  0.23110255112130423  0.4777010013924792  0.8285066287277343  1.0000
  H   H22       1.0  0.7688974484198494  0.5222989989815477  0.171493371403342  1.0000
  H   H23       1.0  0.11477626780769944  0.3984976101118972  0.7712266997683862  1.0000
  H   H24       1.0  0.8852237317334543  0.6015023902621296  0.22877330036269017  1.0000
  H   H25       1.0  0.13585667833543424  0.6108562888473127  0.7908398937453378  1.0000
  H   H26       1.0  0.8641433218785952  0.3891437108006683  0.20916010623740133  1.0000
  H   H27       1.0  0.09606054091701813  0.5731560491871595  0.8877582938670557  1.0000
  H   H28       1.0  0.9039394592970111  0.4268439504608215  0.11224170611568322  1.0000
  H   H29       1.0  0.9540445687577498  0.5973382781563924  0.7358451152837608  1.0000
  H   H30       1.0  0.045955431456279595  0.40266172149158863  0.26415488469897824  1.0000
  H   H31       1.0  0.9867645380167076  0.4927190392176345  0.6373673941017816  1.0000
  H   H32       1.0  0.013235461441087002  0.5072809604271964  0.3626326057120852  1.0000
  H   H33       1.0  0.8718216838942279  0.5859354625663158  0.8755585324765984  1.0000
  H   H34       1.0  0.12817831640316069  0.41406453781086106  0.12444146782335044  1.0000
  H   H35       1.0  0.8513290819795467  0.22977481182011414  0.7154493106606882  1.0000
  H   H36       1.0  0.14867091822165734  0.7702251878245893  0.28455068856740595  1.0000
  H   H37       1.0  0.9515381448868906  0.3252933084033175  0.6445942347443707  1.0000
  H   H38       1.0  0.04846185541049787  0.6747066919738592  0.3554057655555781  1.0000
  H   H39       1.0  0.6877658568951774  0.4216136462260577  0.9741091832912111  1.0000
  H   H40       1.0  0.31223414331885185  0.5783863534219232  0.025890816691528165  1.0000
  H   H41       1.0  0.6124552427192613  0.32226975102562766  0.061119890839072405  1.0000
  H   H42       1.0  0.3875447575781272  0.6777302493515492  0.9388801094608766  1.0000
  H   H43       1.0  0.6512617407810252  0.14755143084149375  0.015130659064126757  1.0000
  H   H44       1.0  0.3487382587601287  0.852448569532533  0.9848693410669497  1.0000
  H   H45       1.0  0.7707097843175773  0.8866540272397802  0.9804196381140564  1.0000
  H   H46       1.0  0.22929021522357632  0.11334597313424666  0.019580362017019893  1.0000
  H   H47       1.0  0.888786983225898  0.8888381390012141  0.707727247955729  1.0000
  H   H48       1.0  0.11121301707149053  0.11116186137596255  0.2922727523442198  1.0000
  H   H49       1.0  0.8290593332844916  0.053336498113651314  0.739791039139516  1.0000
  H   H50       1.0  0.17094066701289706  0.9466635022635255  0.2602089611604329  1.0000
  H   H51       1.0  0.8795006816453066  0.7349945527539555  0.7557464616835575  1.0000
  H   H52       1.0  0.12049931781248799  0.2650054468908754  0.2442535381303091  1.0000
  H   H53       1.0  0.8400724114504514  0.7449320003876294  0.87713946997544  1.0000
  H   H54       1.0  0.15992758876357788  0.2550679992603516  0.12286053000729913  1.0000
  H   H55       1.0  0.0009810955376014557  0.8618286539360378  0.9953850901638793  1.0000
  H   H56       1.0  0.9990189047597872  0.13817134644113915  0.004614910136069491  1.0000
  H   H57       1.0  0.02080769168893537  0.7400617118732203  0.9252359881181987  1.0000
  H   H58       1.0  0.9791923086084531  0.2599382885039564  0.07476401218175002  1.0000
  H   H59       1.0  0.04122720016985611  0.9033701836037489  0.8398628769874411  1.0000
  H   H60       1.0  0.9587727993712977  0.09662981677027799  0.16013712314363535  1.0000
  H   H61       1.0  0.14419436756214074  0.8601810791513987  0.9118584342910147  1.0000
  H   H62       1.0  0.8558056326518885  0.1398189204965821  0.08814156569172438  1.0000
  H   H63       1.0  0.18713975232810606  0.9234488497426377  0.7938131157377775  1.0000
  H   H64       1.0  0.8128602472130476  0.07655115063138905  0.20618688439329882  1.0000
  H   H65       1.0  0.29444675343896803  0.9301476181566489  0.6682074669849106  1.0000
  H   H66       1.0  0.7055532461021857  0.0698523822173779  0.33179253314616564  1.0000
  H   H67       1.0  0.20978698914949873  0.6243859460019195  0.4730428219261657  1.0000
  H   H68       1.0  0.7902130102954703  0.37561405363963385  0.5269571771330558  1.0000
  H   H69       1.0  0.09499667141714249  0.617853195248925  0.5908927673798997  1.0000
  H   H70       1.0  0.9050033281240113  0.3821468051251017  0.40910723275117666  1.0000
  H   H71       1.0  0.35988040494339996  0.7335784375642502  0.7654009242339681  1.0000
  H   H72       1.0  0.6401195952706294  0.2664215620837307  0.23459907574877104  1.0000
  H   H73       1.0  0.5383378561569713  0.809801240415627  0.865907735134427  1.0000
  H   H74       1.0  0.46166214328799793  0.19019875922592658  0.1340922639247945  1.0000
  H   H75       1.0  0.6825447213429078  0.7154205516120833  0.8244235365983097  1.0000
  H   H76       1.0  0.3174552789544808  0.2845794487650935  0.17557646370163912  1.0000
  H   H77       1.0  0.6506601673154562  0.5452716768053899  0.683215508060941  1.0000
  H   H78       1.0  0.3493398329819324  0.4547283235717869  0.31678449223900795  1.0000
  H   H79       1.0  0.4718567376493291  0.4690389841261583  0.5825703163838257  1.0000
  H   H80       1.0  0.5281432625647002  0.5309610155218227  0.41742968359891336  1.0000
  H   H81       1.0  0.3274848519558217  0.5630442213847836  0.6268253865910624  1.0000
  H   H82       1.0  0.6725151482582076  0.43695577826319726  0.37317461339167673  1.0000
  H   H83       1.0  0.9765845464383925  0.16553861583386276  0.7877358432379051  1.0000
  H   H84       1.0  0.023415453858995974  0.834461384543314  0.21226415706204363  1.0000
  H   H85       1.0  0.05251387558598666  0.32960594908892266  0.9278297254447  1.0000
  H   H86       1.0  0.9474861247114018  0.6703940512882541  0.07217027485524882  1.0000
  H   H87       1.0  0.24005552678802247  0.36692247134013917  0.002948826121563257  1.0000
  H   H88       1.0  0.759944472669772  0.6330775283046918  0.9970511736923033  1.0000
  H   H89       1.0  0.3524204506159165  0.23740859601712924  0.9364818092717343  1.0000
  H   H90       1.0  0.647579549681472  0.7625914043600475  0.0635181910282145  1.0000
  H   H91       1.0  0.2762508071419712  0.07558956980800921  0.790706923628638  1.0000
  H   H92       1.0  0.7237491923158235  0.9244104298368218  0.2092930761852287  1.0000
  H   H93       1.0  0.0879020931967031  0.039466805936464844  0.7146875133408419  1.0000
  H   H94       1.0  0.9120979063444505  0.9605331944375619  0.28531248679023435  1.0000
  H   H95       1.0  0.4441443595550559  0.47265770489970843  0.7983481624459251  1.0000
  H   H96       1.0  0.5558556407423327  0.5273422954774684  0.20165183785402374  1.0000
  H   H97       1.0  0.5827773766528345  0.6027787711991565  0.9252531596582458  1.0000
  H   H98       1.0  0.4172226236445541  0.3972212291780202  0.07474684064170314  1.0000
  H   H99       1.0  0.36149532318912586  0.3689843646632566  0.8720127581576728  1.0000
  H   H100      1.0  0.6385046770249034  0.6310156349847243  0.1279872418250664  1.0000
  H   H101      1.0  0.1740166278335424  0.9940931682616201  0.4677514661384322  1.0000
  H   H102      1.0  0.8259833724638462  0.005906832115556686  0.5322485341615167  1.0000
  H   H103      1.0  0.08356488825385268  0.1418069775022884  0.4829581737488824  1.0000
  H   H104      1.0  0.9164351112873009  0.8581930228717385  0.517041826382194  1.0000
  H   H105      1.0  0.08909805277169966  0.8526492786189486  0.4840073286475676  1.0000
  H   H106      1.0  0.9109019467694541  0.14735072175507818  0.5159926714835087  1.0000
  C   C1        1.0  0.32365999063248163  0.7838590376803006  0.48960379247758695  1.0000
  C   C2        1.0  0.6763400088253129  0.21614096196453042  0.5103962073362798  1.0000
  C   C3        1.0  0.3704626446400005  0.7018511466423453  0.4342530664905338  1.0000
  C   C4        1.0  0.6295373555740289  0.2981488530056357  0.5657469334922054  1.0000
  C   C5        1.0  0.4255367665962001  0.7084111584218147  0.3623382433699485  1.0000
  C   C6        1.0  0.5744632336178292  0.29158884122616624  0.6376617566127907  1.0000
  C   C7        1.0  0.43569997052650605  0.7964597088519432  0.34612603927827235  1.0000
  C   C8        1.0  0.5643000290146476  0.2035402915220837  0.6538739608528039  1.0000
  C   C9        1.0  0.49117245725734987  0.8060281715701625  0.27156921685305474  1.0000
  C   C10       1.0  0.5088275422004446  0.19397182807466842  0.728430782960812  1.0000
  C   C11       1.0  0.5015505952450066  0.8924397082239803  0.25873356321911467  1.0000
  C   C12       1.0  0.49844940421278794  0.10756029142085062  0.741266436594752  1.0000
  C   C13       1.0  0.4563178388698179  0.9742892000147741  0.31846772685606944  1.0000
  C   C14       1.0  0.5436821613442114  0.02571079963320676  0.6815322731266696  1.0000
  C   C15       1.0  0.4657638931886127  0.06386888294352006  0.3055743263103115  1.0000
  C   C16       1.0  0.5342361070254166  0.9361311167044609  0.6944256736724277  1.0000
  C   C17       1.0  0.4196918841665164  0.14047138016235572  0.36355721482459114  1.0000
  C   C18       1.0  0.5803081161308722  0.8595286202148211  0.6364427854753577  1.0000
  C   C19       1.0  0.36189608982919774  0.12751496155278144  0.43416491150606057  1.0000
  C   C20       1.0  0.6381039104681907  0.8724850388243952  0.5658350887938882  1.0000
  C   C21       1.0  0.3986829206075386  0.9681467467387044  0.39309753137661063  1.0000
  C   C22       1.0  0.6013170789336151  0.03185325363532244  0.6069024687544656  1.0000
  C   C23       1.0  0.3882455694369912  0.8761177446547694  0.407467368458742  1.0000
  C   C24       1.0  0.6117544308603974  0.12388225572240728  0.5925326318412069  1.0000
  C   C25       1.0  0.30923679748452587  0.20806552986902432  0.4939013157046636  1.0000
  C   C26       1.0  0.6907632020566279  0.7919344705050025  0.5060986844264128  1.0000
  C   C27       1.0  0.28356308465854074  0.2823544054223099  0.4540060443278653  1.0000
  C   C28       1.0  0.7164369155554886  0.717645594225671  0.5459939556548739  1.0000
  C   C29       1.0  0.2347741639268721  0.3589052468440564  0.5097607251464127  1.0000
  C   C30       1.0  0.7652258362871571  0.6410947528039246  0.49023927483632646  1.0000
  C   C31       1.0  0.21214480124391488  0.36460022487818244  0.6094628145483351  1.0000
  C   C32       1.0  0.7878551989701145  0.6353997747697986  0.390537185434404  1.0000
  C   C33       1.0  0.2360022135738427  0.2907480246590668  0.6500272917859243  1.0000
  C   C34       1.0  0.7639977866401868  0.7092519749889141  0.3499727081968147  1.0000
  C   C35       1.0  0.2829704842397714  0.2130414657793199  0.5913893791475159  1.0000
  C   C36       1.0  0.717029515974258  0.7869585338686611  0.40861062083522326  1.0000
  C   C37       1.0  0.15523000323269617  0.4628127141990595  0.7699657750454927  1.0000
  C   C38       1.0  0.8447699969813333  0.5371872854489214  0.2300342249372465  1.0000
  C   C39       1.0  0.09613833388391085  0.5500844285879344  0.7992893629142325  1.0000
  C   C40       1.0  0.9038616655738836  0.4499155710568966  0.20071063689963412  1.0000
  C   C41       1.0  0.9858852224747363  0.5280736689518851  0.7256968077448738  1.0000
  C   C42       1.0  0.014114777739293014  0.47192633069609574  0.27430319223786537  1.0000
  C   C43       1.0  0.9217223027956966  0.4645645453906225  0.7564974134866467  1.0000
  C   C44       1.0  0.07827769741833286  0.5354354542573584  0.2435025864960924  1.0000
  C   C45       1.0  0.8699777917630981  0.5064753205980881  0.8392517872071724  1.0000
  C   C46       1.0  0.13002220845093135  0.49352467904989283  0.16074821277556672  1.0000
  C   C47       1.0  0.814999446652164  0.3584824257208261  0.8366981726471003  1.0000
  C   C48       1.0  0.18500055364522472  0.6415175746563507  0.16330182765284865  1.0000
  C   C49       1.0  0.8602038161439757  0.30909768302145935  0.7501448199834552  1.0000
  C   C50       1.0  0.13979618407005362  0.6909023166265215  0.24985517999928378  1.0000
  C   C51       1.0  0.914974713195674  0.36258582020483987  0.7110430824861578  1.0000
  C   C52       1.0  0.08502528634547957  0.6374141801691869  0.28895691764491865  1.0000
  C   C53       1.0  0.76364204761054  0.3030974397572623  0.8859870107386947  1.0000
  C   C54       1.0  0.23635795184725442  0.6969025598875687  0.11401298907517185  1.0000
  C   C55       1.0  0.7019427999204563  0.34627083376877954  0.9575060863379252  1.0000
  C   C56       1.0  0.2980571996206974  0.6537291666052472  0.04249391379315115  1.0000
  C   C57       1.0  0.6607932539396937  0.29059729528696565  0.005210853702750702  1.0000
  C   C58       1.0  0.3392067463448694  0.7094027050869337  0.9947891458425531  1.0000
  C   C59       1.0  0.6812118394596072  0.19431629832732777  0.9800656708809298  1.0000
  C   C60       1.0  0.3187881608249559  0.8056837020465716  0.019934328664374005  1.0000
  C   C61       1.0  0.7422617590536534  0.15634502038680512  0.9058029791114024  1.0000
  C   C62       1.0  0.25773824116037597  0.8436549792611757  0.09419702087133669  1.0000
  C   C63       1.0  0.7701016551771012  0.0555881883044463  0.877413310986009  1.0000
  C   C64       1.0  0.22989834436405251  0.9444118120695806  0.12258668914506742  1.0000
  C   C65       1.0  0.7850679843132993  0.9216122261886759  0.9250870473649927  1.0000
  C   C66       1.0  0.2149320158879046  0.07838777345602764  0.07491295186310139  1.0000
  C   C67       1.0  0.8381816377683798  0.8754971497164616  0.8448831970269086  1.0000
  C   C68       1.0  0.16181836252900877  0.12450285066071509  0.15511680327304042  1.0000
  C   C69       1.0  0.8520532082848461  0.9229185446479216  0.7749690885084425  1.0000
  C   C70       1.0  0.14794679192918336  0.07708145500005949  0.2250309114742967  1.0000
  C   C71       1.0  0.8185439424646741  0.013927284857369276  0.7916325941110611  1.0000
  C   C72       1.0  0.18145605783271423  0.9860727155198075  0.20836740618888774  1.0000
  C   C73       1.0  0.8834288378832443  0.7836627533110345  0.8423272116724859  1.0000
  C   C74       1.0  0.11657116231795958  0.21633724633366888  0.15767278755560804  1.0000
  C   C75       1.0  0.9950377297334951  0.8055323135697748  0.9120336681757476  1.0000
  C   C76       1.0  0.004962270563893435  0.19446768680740195  0.08796633212420124  1.0000
  C   C77       1.0  0.06623970316455914  0.8395986486627144  0.8582744572011921  1.0000
  C   C78       1.0  0.9337602971328294  0.1604013517144624  0.14172554309875682  1.0000
  C   C79       1.0  0.13208945279881504  0.770078770214686  0.6978534334372829  1.0000
  C   C80       1.0  0.8679105467423386  0.22992123015934093  0.3021465666937935  1.0000
  C   C81       1.0  0.19044973857175698  0.8581578208100457  0.7226315567404872  1.0000
  C   C82       1.0  0.8095502617256315  0.1418421795671312  0.27736844355946166  1.0000
  C   C83       1.0  0.2520568904148324  0.8617248671395418  0.6538702422113656  1.0000
  C   C84       1.0  0.7479431098825561  0.13827513323763496  0.3461297580885832  1.0000
  C   C85       1.0  0.26045631677796005  0.7783270792026349  0.5633898825992333  1.0000
  C   C86       1.0  0.739543683506603  0.22167292117126455  0.43661011694607055  1.0000
  C   C87       1.0  0.2047064198780795  0.6900169761766354  0.5430651194439039  1.0000
  C   C88       1.0  0.795293580419309  0.30998302420054147  0.45693488085604494  1.0000
  C   C89       1.0  0.1400052424697749  0.6856938422129938  0.6078996361676605  1.0000
  C   C90       1.0  0.8599947577442544  0.314306157434987  0.3921003638150786  1.0000
  C   C91       1.0  0.42370281989612785  0.6923352405645002  0.7481454286629069  1.0000
  C   C92       1.0  0.5762971796450258  0.30766475980952657  0.2518545714681696  1.0000
  C   C93       1.0  0.5235085295349157  0.7351028505604325  0.8040878544522618  1.0000
  C   C94       1.0  0.47649147000623804  0.26489714981359436  0.19591214567881443  1.0000
  C   C95       1.0  0.6048487545708154  0.6819640451293143  0.7802837513251939  1.0000
  C   C96       1.0  0.39515124497033816  0.3180359552447125  0.21971624880588234  1.0000
  C   C97       1.0  0.5867393368141892  0.5864164904565429  0.7006711485626148  1.0000
  C   C98       1.0  0.4132606633998401  0.4135835091914381  0.2993288514201243  1.0000
  C   C99       1.0  0.48679595484769583  0.5435824849034402  0.6447927066930711  1.0000
  C   C100      1.0  0.5132040446934578  0.4564175154705866  0.35520729343800533  1.0000
  C   C101      1.0  0.4055195508470942  0.5965353808238322  0.6690168502570782  1.0000
  C   C102      1.0  0.5944804493669352  0.40346461882414864  0.33098314972566073  1.0000
  C   C103      1.0  0.05896127611714862  0.1814860671292283  0.819212585054244  1.0000
  C   C104      1.0  0.9410387240968807  0.8185139325187526  0.1807874149284952  1.0000
  C   C105      1.0  0.10177317026479547  0.2736372372923531  0.8990718127019589  1.0000
  C   C106      1.0  0.8982268292763583  0.7263627630816737  0.10092818742911738  1.0000
  C   C107      1.0  0.20735851710469963  0.29435333770951316  0.9414347415413725  1.0000
  C   C108      1.0  0.7926414831926889  0.7056466626676636  0.058565258758576266  1.0000
  C   C109      1.0  0.26997003171179423  0.22230268333283532  0.9031679840697916  1.0000
  C   C110      1.0  0.730029968502235  0.7776973163151456  0.09683201591294739  1.0000
  C   C111      1.0  0.22705713580081585  0.13084054301395348  0.8216291061277009  1.0000
  C   C112      1.0  0.7729428644132135  0.8691594566340276  0.1783708938550382  1.0000
  C   C113      1.0  0.12149471166379341  0.11024928124401928  0.7794662686633695  1.0000
  C   C114      1.0  0.8785052886335951  0.8897507191331576  0.22053373163657936  1.0000
  C   C115      1.0  0.46886857924310854  0.4843080951450861  0.8866081524095542  1.0000
  C   C116      1.0  0.5311314209709207  0.5156919045028949  0.11339184757318505  1.0000
  C   C117      1.0  0.5467250323241912  0.558033401858106  0.9584222762586009  1.0000
  C   C118      1.0  0.4532749678770127  0.44196659778659747  0.04157772296949316  1.0000
  C   C119      1.0  0.4223239510324866  0.42632417193580757  0.9282710450069195  1.0000
  C   C120      1.0  0.5776760492520766  0.5736758284380918  0.07172895453838425  1.0000
  C   C121      1.0  0.09729785269414687  0.9963507317727142  0.4802446499608727  1.0000
  C   C122      1.0  0.9027021467636476  0.0036492678721168933  0.519755349852994  1.0000
  C   C123      1.0  0.0467938182925792  0.07923800405353558  0.4896458781520476  1.0000
  C   C124      1.0  0.9532061820048094  0.9207619963236412  0.5103541221479013  1.0000
  C   C125      1.0  0.04978487128150363  0.91706839838954  0.49036730042352417  1.0000
  C   C126      1.0  0.9502151290158849  0.08293160198763679  0.5096326998764247  1.0000
  N   N1        1.0  0.3332127503783931  0.8683787393229301  0.47668107565961315  1.0000
  N   N2        1.0  0.6667872499189955  0.13162126105424674  0.5233189246403357  1.0000
  N   N3        1.0  0.3526531176656726  0.04362946761739827  0.44871833010243223  1.0000
  N   N4        1.0  0.6473468825483568  0.9563705320305828  0.5512816698803069  1.0000
  N   N5        1.0  0.8185820227315362  0.4565392562280312  0.8798185265927024  1.0000
  N   N6        1.0  0.1814179775658523  0.5434607441491455  0.12018147370724648  1.0000
  N   N7        1.0  0.7824434466246079  0.2098819872829668  0.8602375135237785  1.0000
  N   N8        1.0  0.21755655291654585  0.7901180130910599  0.13976248660729798  1.0000
  N   N9        1.0  0.7513087149094666  0.008425589798475581  0.9412633562828755  1.0000
  N   N10       1.0  0.24869128530456283  0.9915744098495054  0.05873664369986373  1.0000
  O   O1        1.0  0.1665272436721765  0.44394555321827184  0.6593254542658757  1.0000
  O   O2        1.0  0.8334727565418528  0.5560544464297091  0.3406745457168634  1.0000
  O   O3        1.0  0.06576027939837956  0.7593933478312584  0.7558920974993658  1.0000
  O   O4        1.0  0.9342397208990089  0.24060665254591834  0.2441079028005831  1.0000
  O   O5        1.0  0.4582954763804009  0.996398729370143  0.9653897222394766  1.0000
  O   O6        1.0  0.5417045230645683  0.0036012702714106177  0.034610276819744844  1.0000
