data_image0
_chemical_formula_structural       H32C20N8Br4I8
_chemical_formula_sum              "H32 C20 N8 Br4 I8"
_cell_length_a       6.040660757774969
_cell_length_b       14.437832360714506
_cell_length_c       11.93223903583538
_cell_angle_alpha    90.0
_cell_angle_beta     97.59021383002174
_cell_angle_gamma    90.0

_space_group_name_H-M_alt    "P 1"
_space_group_IT_number       1

loop_
  _space_group_symop_operation_xyz
  'x, y, z'

loop_
  _atom_site_type_symbol
  _atom_site_label
  _atom_site_symmetry_multiplicity
  _atom_site_fract_x
  _atom_site_fract_y
  _atom_site_fract_z
  _atom_site_occupancy
  H   H1        1.0  0.08255699703551667  0.5205197374675768  0.10961379691394361  1.0000
  H   H2        1.0  0.41744300279937413  0.02051973749232108  0.3903862025363739  1.0000
  H   H3        1.0  0.9174430028581408  0.4794802624829347  0.8903862028321633  1.0000
  H   H4        1.0  0.5825569970942833  0.9794802624581904  0.6096137972097331  1.0000
  H   H5        1.0  0.030763988729556213  0.5789099382219427  0.23712312089099963  1.0000
  H   H6        1.0  0.46923601132921045  0.07890993824668693  0.2628768794047898  1.0000
  H   H7        1.0  0.9692360111641014  0.42109006172856883  0.7628768788551074  1.0000
  H   H8        1.0  0.5307639887883229  0.9210900617038246  0.7371231211867889  1.0000
  H   H9        1.0  0.8918468005351066  0.4726999122506956  0.1976767336073339  1.0000
  H   H10       1.0  0.6081531993586684  0.9726999122259512  0.30232326615727173  1.0000
  H   H11       1.0  0.10815319935855101  0.527300087699816  0.802323266138773  1.0000
  H   H12       1.0  0.39184680053498916  0.027300087724560194  0.6976767335888352  1.0000
  H   H13       1.0  0.7145031236213979  0.43263413190724154  0.4189976003234114  1.0000
  H   H14       1.0  0.785496876272377  0.9326341318824972  0.08100239944119425  1.0000
  H   H15       1.0  0.28549687627225956  0.56736586804327  0.5810023994226956  1.0000
  H   H16       1.0  0.2145031236212806  0.06736586806801423  0.9189976003049126  1.0000
  H   H17       1.0  0.4062925878319487  0.22234372167492975  0.4116984085480443  1.0000
  H   H18       1.0  0.0937074120029421  0.7223437216501855  0.08830159090227314  1.0000
  H   H19       1.0  0.5937074120617087  0.7776562782755817  0.5883015911980626  1.0000
  H   H20       1.0  0.9062925878907153  0.277656278300326  0.9116984088438338  1.0000
  H   H21       1.0  0.6869951665763523  0.2645255980663703  0.421644363795776  1.0000
  H   H22       1.0  0.8130048335412983  0.764525598041626  0.07835563681430156  1.0000
  H   H23       1.0  0.3130048335411809  0.7354744018841413  0.5783556367958028  1.0000
  H   H24       1.0  0.18699516657623505  0.23547440190888544  0.9216443637772773  1.0000
  H   H25       1.0  0.5562854162055239  0.21931537234189757  0.28945379426149676  1.0000
  H   H26       1.0  0.9437145836882509  0.7193153723171534  0.2105462055031089  1.0000
  H   H27       1.0  0.4437145836881336  0.780684627608614  0.7105462054846103  1.0000
  H   H28       1.0  0.056285416205406565  0.28068462763335816  0.789453794242998  1.0000
  H   H29       1.0  0.4389400111896474  0.5767900791437005  0.3259561413409091  1.0000
  H   H30       1.0  0.061059988645243486  0.07679007916844471  0.1740438581094084  1.0000
  H   H31       1.0  0.5610599887040102  0.423209920806811  0.6740438584051978  1.0000
  H   H32       1.0  0.938940011248414  0.9232099207820669  0.8259561416366986  1.0000
  C   C1        1.0  0.2508382840375356  0.36919478262567995  0.2709450577877643  1.0000
  C   C2        1.0  0.24916171602123105  0.8691947832935605  0.22905494250802513  1.0000
  C   C3        1.0  0.7491617160799977  0.6308052173248315  0.7290549428038146  1.0000
  C   C4        1.0  0.7508382838724265  0.1308052173495758  0.7709450572380818  1.0000
  C   C5        1.0  0.04729223835680748  0.511569716663096  0.1970088379336372  1.0000
  C   C6        1.0  0.45270776170195925  0.011569716687840346  0.3029911623621523  1.0000
  C   C7        1.0  0.9527077617607259  0.4884302832874154  0.8029911626579417  1.0000
  C   C8        1.0  0.5472922381916984  0.9884302832626711  0.6970088373839547  1.0000
  C   C9        1.0  0.5543403151792529  0.43214549969267196  0.365967945440174  1.0000
  C   C10       1.0  0.945659684714522  0.9321454996679277  0.13403205432443158  1.0000
  C   C11       1.0  0.44565968471440465  0.5678545009504643  0.6340320543059329  1.0000
  C   C12       1.0  0.05434031517913552  0.06785450097520855  0.8659679454216752  1.0000
  C   C13       1.0  0.5286388633338523  0.2574285022253899  0.36604792732300984  1.0000
  C   C14       1.0  0.9713611367837981  0.7574285022006456  0.13395207328706768  1.0000
  C   C15       1.0  0.4713611367836809  0.7425714984177464  0.633952073268569  1.0000
  C   C16       1.0  0.028638863333735044  0.2425714977498659  0.8660479273045111  1.0000
  C   C17       1.0  0.41876091131050325  0.502403781868058  0.3212090206726009  1.0000
  C   C18       1.0  0.08123908874826338  0.0024037818928022573  0.17879097962318857  1.0000
  C   C19       1.0  0.58123908880703  0.49759621808245347  0.678790979918978  1.0000
  C   C20       1.0  0.918760911145394  0.9975962180577093  0.8212090201229183  1.0000
  N   N1        1.0  0.44715699380823914  0.3498054149556604  0.3337362334115158  1.0000
  N   N2        1.0  0.05284300602665175  0.8498054149309161  0.16626376603880166  1.0000
  N   N3        1.0  0.5528430060854184  0.6501945849948512  0.6662637663345911  1.0000
  N   N4        1.0  0.9471569938670057  0.15019458501959537  0.8337362337073052  1.0000
  N   N5        1.0  0.2305574465603339  0.46206770748720966  0.2625376917740841  1.0000
  N   N6        1.0  0.2694425534984327  0.9620677074624654  0.2374623085217053  1.0000
  N   N7        1.0  0.7694425533333237  0.5379322924633019  0.7374623079720228  1.0000
  N   N8        1.0  0.7305574466191006  0.03793229248804612  0.7625376920698735  1.0000
  Br  Br1       1.0  0.03846753650949862  0.2854539716927453  0.20482860265496855  1.0000
  Br  Br2       1.0  0.461532463549268  0.7854539716680009  0.2951713976408209  1.0000
  Br  Br3       1.0  0.961532463384159  0.7145460282577663  0.7951713970911384  1.0000
  Br  Br4       1.0  0.5384675365682652  0.21454602828251051  0.7048286029507579  1.0000
  I   I1        1.0  0.594772468203448  0.17510341904779447  0.05795573829906319  1.0000
  I   I2        1.0  0.9052275333453345  0.6751034190230502  0.44204426146386716  1.0000
  I   I3        1.0  0.4052275333452172  0.824896580902717  0.9420442614453686  1.0000
  I   I4        1.0  0.09477246820333064  0.32489658092746126  0.5579557382805646  1.0000
  I   I5        1.0  0.5183504546941847  0.40094991445887096  0.01222309128207717  1.0000
  I   I6        1.0  0.98164954519959  0.9009499144341266  0.48777690848252847  1.0000
  I   I7        1.0  0.4816495451994727  0.5990500854916406  0.9877769084640297  1.0000
  I   I8        1.0  0.01835045469406747  0.09905008551638482  0.5122230912635785  1.0000
