data_image0
_chemical_formula_structural       H72C60O16Br8
_chemical_formula_sum              "H72 C60 O16 Br8"
_cell_length_a       11.9864897190874
_cell_length_b       7.00333658309959
_cell_length_c       19.676070821057166
_cell_angle_alpha    90.0
_cell_angle_beta     95.51234973412555
_cell_angle_gamma    90.0

_space_group_name_H-M_alt    "P 1"
_space_group_IT_number       1

loop_
  _space_group_symop_operation_xyz
  'x, y, z'

loop_
  _atom_site_type_symbol
  _atom_site_label
  _atom_site_symmetry_multiplicity
  _atom_site_fract_x
  _atom_site_fract_y
  _atom_site_fract_z
  _atom_site_occupancy
  H   H1        1.0  0.09035603279105378  0.15870302488133245  0.5433236660412637  1.0000
  H   H2        1.0  0.909643966809954  0.6587030260879295  0.956676334054938  1.0000
  H   H3        1.0  0.9096439673771556  0.84129697467608  0.45667633412574216  1.0000
  H   H4        1.0  0.09035603335825536  0.3412969748973737  0.043323666112067914  1.0000
  H   H5        1.0  0.14347457646098055  0.11519239728485972  0.42385420925554895  1.0000
  H   H6        1.0  0.8565254234374132  0.6151923970635659  0.0761457909596783  1.0000
  H   H7        1.0  0.8565254237072287  0.8848076022725527  0.576145790911457  1.0000
  H   H8        1.0  0.14347457673079614  0.3848076024938465  0.9238542092073275  1.0000
  H   H9        1.0  0.33901318029613214  0.15964862415696646  0.3993218161449027  1.0000
  H   H10       1.0  0.6609868195587264  0.6596486239356727  0.10067818356023144  1.0000
  H   H11       1.0  0.660986819828542  0.8403513768283368  0.6006781835120101  1.0000
  H   H12       1.0  0.3390131797724658  0.3403513756217398  0.8993218165841917  1.0000
  H   H13       1.0  0.5056293830351806  0.18187359052165766  0.3821009788135481  1.0000
  H   H14       1.0  0.494370616819678  0.6818735903003639  0.11789902089158599  1.0000
  H   H15       1.0  0.4943706170894936  0.8181264090357547  0.6178990208433647  1.0000
  H   H16       1.0  0.5056293833049962  0.31812640925704855  0.8821009787653267  1.0000
  H   H17       1.0  0.6749281910438139  0.18129427808224266  0.3152721378211542  1.0000
  H   H18       1.0  0.32507180881104464  0.6812942792888397  0.18472786188397988  1.0000
  H   H19       1.0  0.3250718090808602  0.8187057214751698  0.6847278618357585  1.0000
  H   H20       1.0  0.6749281905201475  0.3187057216964636  0.8152721382604432  1.0000
  H   H21       1.0  0.880039881184766  0.21700613014480735  0.315035496184259  1.0000
  H   H22       1.0  0.11996011867009272  0.7170061299235135  0.18496450352087507  1.0000
  H   H23       1.0  0.11996011810289112  0.7829938708404959  0.6849645034500709  1.0000
  H   H24       1.0  0.8800398814981167  0.2829938696338989  0.8150354966461308  1.0000
  H   H25       1.0  0.9992773591572307  0.31415126117303643  0.4189967235963253  1.0000
  H   H26       1.0  0.0007226415781802255  0.8141512609517427  0.0810032766414848  1.0000
  H   H27       1.0  0.0007226410109786441  0.685848738384376  0.5810032765706806  1.0000
  H   H28       1.0  0.9992773585900291  0.18584873860566978  0.918996723525521  1.0000
  H   H29       1.0  0.23608107039613174  0.2408383518322205  0.6364634525120627  1.0000
  H   H30       1.0  0.763918929204876  0.7408383516109267  0.8635365475841391  1.0000
  H   H31       1.0  0.7639189289350605  0.7591616491530827  0.3635365476323604  1.0000
  H   H32       1.0  0.23608107096333336  0.2591616493743765  0.13646345258286688  1.0000
  H   H33       1.0  0.43276480753716523  0.28969951906867375  0.6122268926752126  1.0000
  H   H34       1.0  0.5672351929008598  0.78969951884738  0.8877731074435719  1.0000
  H   H35       1.0  0.5672351926310442  0.7103004804887387  0.3877731074917932  1.0000
  H   H36       1.0  0.4327648072673496  0.2103004807100325  0.112226892723434  1.0000
  H   H37       1.0  0.7349415199827412  0.3625988084205561  0.593612366378723  1.0000
  H   H38       1.0  0.2650584796182666  0.8625988096271531  0.9063876337174787  1.0000
  H   H39       1.0  0.26505848018546824  0.6374011911368563  0.40638763378828285  1.0000
  H   H40       1.0  0.7349415205499428  0.13740119135815013  0.09361236644952724  1.0000
  H   H41       1.0  0.9144593964908494  0.362479566686264  0.5290530902503108  1.0000
  H   H42       1.0  0.08554060394717551  0.8624795664649703  0.9709469098684738  1.0000
  H   H43       1.0  0.0855406036773599  0.6375204328711485  0.4709469099166952  1.0000
  H   H44       1.0  0.9144593962210339  0.13752043309244222  0.0290530902985321  1.0000
  H   H45       1.0  0.1931481946847135  0.48205434366055117  0.7090387506845363  1.0000
  H   H46       1.0  0.8068518048727591  0.9820543434392575  0.7909612489015722  1.0000
  H   H47       1.0  0.8068518054399606  0.5179456573247521  0.29096124897237646  1.0000
  H   H48       1.0  0.1931481952519151  0.017945656118155014  0.20903875075534048  1.0000
  H   H49       1.0  0.15262799637971886  0.5199376935255633  0.7805255867775395  1.0000
  H   H50       1.0  0.8473720040583063  0.01993769374685706  0.7194744133412451  1.0000
  H   H51       1.0  0.8473720037884904  0.4800623060318492  0.21947441338946644  1.0000
  H   H52       1.0  0.15262799610990324  0.9800623058105554  0.28052558682576073  1.0000
  H   H53       1.0  0.3436701933710057  0.48944056726785723  0.7947130239816224  1.0000
  H   H54       1.0  0.6563298062300021  0.9894405670465634  0.7052869761145792  1.0000
  H   H55       1.0  0.6563298067972037  0.510559433717446  0.20528697618538347  1.0000
  H   H56       1.0  0.3436701930576549  0.010559433938739824  0.2947130235197506  1.0000
  H   H57       1.0  0.4074437688118127  0.6770594249950205  0.8137240162782682  1.0000
  H   H58       1.0  0.5925562316262123  0.17705942521631432  0.6862759838405164  1.0000
  H   H59       1.0  0.5925562313128615  0.3229405745623919  0.18627598337864457  1.0000
  H   H60       1.0  0.407443768541997  0.8229405743410981  0.3137240163264895  1.0000
  H   H61       1.0  0.20835410154272072  0.07459083164168001  0.8009240156314003  1.0000
  H   H62       1.0  0.7916458988953042  0.5745908314203862  0.6990759844873843  1.0000
  H   H63       1.0  0.7916458986254886  0.9254091693436233  0.19907598453560568  1.0000
  H   H64       1.0  0.2083541012293699  0.42540916813702623  0.30092401516952844  1.0000
  H   H65       1.0  0.0830085586076998  0.1482975475584437  0.7600045030948674  1.0000
  H   H66       1.0  0.9169914409933081  0.64829754733715  0.7399954970013343  1.0000
  H   H67       1.0  0.9169914407234923  0.8517024534268596  0.2399954970495556  1.0000
  H   H68       1.0  0.08300855913136615  0.3517024536481534  0.26000450265557845  1.0000
  H   H69       1.0  0.08475074133849834  0.9612313759480309  0.8110142102912237  1.0000
  H   H70       1.0  0.9152492582189743  0.4612313761693247  0.6889857892948849  1.0000
  H   H71       1.0  0.9152492579491586  0.03876862503727233  0.18898578934310623  1.0000
  H   H72       1.0  0.08475074190569994  0.5387686248159785  0.31101421036202787  1.0000
  C   C1        1.0  0.1764032626513828  0.18105383983112908  0.5315660411888993  1.0000
  C   C2        1.0  0.8235967369496251  0.6810538396098353  0.9684339589073024  1.0000
  C   C3        1.0  0.8235967366798094  0.8189461611541742  0.46843395895552375  1.0000
  C   C4        1.0  0.17640326321858432  0.31894615994757713  0.0315660412597035  1.0000
  C   C5        1.0  0.20579870612841375  0.1578419224727244  0.4650503741247753  1.0000
  C   C6        1.0  0.7942012937699799  0.6578419222514307  0.03494962609045197  1.0000
  C   C7        1.0  0.7942012940397958  0.842158077084688  0.5349496260422306  1.0000
  C   C8        1.0  0.20579870639822936  0.34215807730598186  0.9650503740765538  1.0000
  C   C9        1.0  0.3163638850541539  0.18273391044609766  0.4508604990471933  1.0000
  C   C10       1.0  0.6836361148007046  0.6827339102248039  0.049139500657940885  1.0000
  C   C11       1.0  0.6836361150705202  0.8172660905392056  0.5491395006097195  1.0000
  C   C12       1.0  0.31636388532396953  0.3172660893326086  0.9508604989989718  1.0000
  C   C13       1.0  0.3992126162806787  0.23141117819625345  0.5037443362167127  1.0000
  C   C14       1.0  0.6007873833203291  0.7314111794028505  0.9962556638794889  1.0000
  C   C15       1.0  0.6007873830505135  0.768588821361159  0.4962556639277104  1.0000
  C   C16       1.0  0.3992126168478803  0.26858882158245273  0.003744336287516796  1.0000
  C   C17       1.0  0.5151231341853115  0.2529990096828685  0.488578735787174  1.0000
  C   C18       1.0  0.4848768657130822  0.7529990094615746  0.011421264428053272  1.0000
  C   C19       1.0  0.4848768659828978  0.747000989874544  0.511421264379832  1.0000
  C   C20       1.0  0.5151231344551271  0.24700099009583776  0.9885787357389525  1.0000
  C   C21       1.0  0.559334093594156  0.22782920413255692  0.4271410167131081  1.0000
  C   C22       1.0  0.4406659063042379  0.7278292039112632  0.07285898350211913  1.0000
  C   C23       1.0  0.4406659065740535  0.7721707968527463  0.5728589834538977  1.0000
  C   C24       1.0  0.5593340938639716  0.2721707956461493  0.9271410166648868  1.0000
  C   C25       1.0  0.6754850351652816  0.2530562024216791  0.42289065079174076  1.0000
  C   C26       1.0  0.32451496468957697  0.7530562022003853  0.07710934891339331  1.0000
  C   C27       1.0  0.3245149641223754  0.7469437971357333  0.577109348842589  1.0000
  C   C28       1.0  0.6754850354350972  0.24694379735702715  0.9228906507435195  1.0000
  C   C29       1.0  0.7260829852757827  0.2248186605509619  0.3616392902248845  1.0000
  C   C30       1.0  0.27391701462261087  0.7248186603296681  0.1383607099903427  1.0000
  C   C31       1.0  0.2739170148924265  0.7751813390064505  0.6383607099421214  1.0000
  C   C32       1.0  0.7260829847085813  0.27518133922774435  0.8616392901540803  1.0000
  C   C33       1.0  0.8407769042771358  0.24522456255271177  0.36180538119712996  1.0000
  C   C34       1.0  0.1592230955777228  0.7452245623314181  0.13819461850800413  1.0000
  C   C35       1.0  0.15922309589107358  0.7547754370047007  0.6381946189698758  1.0000
  C   C36       1.0  0.8407769045469514  0.25477543722599444  0.8618053811489086  1.0000
  C   C37       1.0  0.9094863101176758  0.2979926461104551  0.4215485268303415  1.0000
  C   C38       1.0  0.09051368978071812  0.7979926458891613  0.07845147338488573  1.0000
  C   C39       1.0  0.09051369005053374  0.7020073534469573  0.5784514733366644  1.0000
  C   C40       1.0  0.9094863103874913  0.2020073536682511  0.9215485267821202  1.0000
  C   C41       1.0  0.2584069807763321  0.22892894564984825  0.5842416634423123  1.0000
  C   C42       1.0  0.7415930196616928  0.7289289454285545  0.9157583366764721  1.0000
  C   C43       1.0  0.7415930193918773  0.7710710539075641  0.4157583367246936  1.0000
  C   C44       1.0  0.2584069805065165  0.27107105412885796  0.08424166349053362  1.0000
  C   C45       1.0  0.3692386536404297  0.2549111968012653  0.5708107101352928  1.0000
  C   C46       1.0  0.6307613459170429  0.7549111965799715  0.9291892894508158  1.0000
  C   C47       1.0  0.6307613464842445  0.7450888027561472  0.42918928952161994  1.0000
  C   C48       1.0  0.36923865337061407  0.24508880297744096  0.07081071018351418  1.0000
  C   C49       1.0  0.7456729484287331  0.30367636265437464  0.48360826327492534  1.0000
  C   C50       1.0  0.25432705146966067  0.8036763624330809  0.01639173694030188  1.0000
  C   C51       1.0  0.2543270517394763  0.6963236383309287  0.5163917368920805  1.0000
  C   C52       1.0  0.7456729478615315  0.19632363712433157  0.9836082632041211  1.0000
  C   C53       1.0  0.6943078539786344  0.3258143119247468  0.5433542581016577  1.0000
  C   C54       1.0  0.30569214645939075  0.825814311703453  0.9566457420171269  1.0000
  C   C55       1.0  0.3056921461460399  0.6741856890605565  0.4566457415552551  1.0000
  C   C56       1.0  0.6943078537088186  0.17418568785395944  0.04335425814987907  1.0000
  C   C57       1.0  0.8631647397599834  0.32671194691992467  0.4820328275320494  1.0000
  C   C58       1.0  0.13683526009487507  0.826711946698631  0.017967172173084703  1.0000
  C   C59       1.0  0.13683526036469065  0.6732880526374878  0.5179671721248633  1.0000
  C   C60       1.0  0.863164740029799  0.17328805285878152  0.982032827483828  1.0000
  O   O1        1.0  0.585509678809994  0.3028518013996814  0.5448664054320754  1.0000
  O   O2        1.0  0.41449032162803096  0.8028518026062784  0.9551335946867092  1.0000
  O   O3        1.0  0.41449032131468017  0.6971481981577311  0.45513359422483735  1.0000
  O   O4        1.0  0.5855096785401784  0.19714819837902486  0.04486640548029675  1.0000
  O   O5        1.0  0.20269497649937923  0.43761729050634407  0.7561249439682821  1.0000
  O   O6        1.0  0.7973050230580935  0.9376172917129411  0.7438750556178264  1.0000
  O   O7        1.0  0.797305023625295  0.5623827090510684  0.2438750556886306  1.0000
  O   O8        1.0  0.2026949770665808  0.062382709272362176  0.2561249440390863  1.0000
  O   O9        1.0  0.40952725491209957  0.5394374602980977  0.8231767218927484  1.0000
  O   O10       1.0  0.5904727455259254  0.03943746051939146  0.6768232782260362  1.0000
  O   O11       1.0  0.5904727452561099  0.46056254068720553  0.17682327827425753  1.0000
  O   O12       1.0  0.40952725464228396  0.9605625404659118  0.3231767219409697  1.0000
  O   O13       1.0  0.11820612826273193  0.093937294344467  0.8046573723846784  1.0000
  O   O14       1.0  0.881793872175293  0.5939372941231732  0.6953426277341062  1.0000
  O   O15       1.0  0.8817938719054774  0.9060627066408362  0.19534262778232753  1.0000
  O   O16       1.0  0.1182061279929163  0.40606270543423917  0.3046573724328997  1.0000
  Br  Br1       1.0  0.6394840345437621  0.5168238406154196  0.7019448742680723  1.0000
  Br  Br2       1.0  0.3605159650137104  0.016823840836713434  0.7980551253180362  1.0000
  Br  Br3       1.0  0.360515965580912  0.4831761603698836  0.29805512538884044  1.0000
  Br  Br4       1.0  0.6394840351109637  0.9831761601485898  0.20194487433887648  1.0000
  Br  Br5       1.0  0.02544628218122905  0.694414652543745  0.8343389066315169  1.0000
  Br  Br6       1.0  0.9745537173762436  0.1944146527650388  0.6656610929545916  1.0000
  Br  Br7       1.0  0.9745537179434451  0.3055853470136674  0.16566109302539592  1.0000
  Br  Br8       1.0  0.025446282748430624  0.8055853482202645  0.334338906702321  1.0000
