data_image0
_chemical_formula_structural       H48C72N16O24S4
_chemical_formula_sum              "H48 C72 N16 O24 S4"
_cell_length_a       14.533392583297921
_cell_length_b       17.591853453461304
_cell_length_c       6.53400803078787
_cell_angle_alpha    90.0
_cell_angle_beta     90.0
_cell_angle_gamma    90.0

_space_group_name_H-M_alt    "P 1"
_space_group_IT_number       1

loop_
  _space_group_symop_operation_xyz
  'x, y, z'

loop_
  _atom_site_type_symbol
  _atom_site_label
  _atom_site_symmetry_multiplicity
  _atom_site_fract_x
  _atom_site_fract_y
  _atom_site_fract_z
  _atom_site_occupancy
  H   H1        1.0  0.0045126146303492865  0.3792690285677223  0.39679372565561083  1.0000
  H   H2        1.0  0.5045126152049597  0.12073097161812212  0.10320627504932631  1.0000
  H   H3        1.0  0.9954873851427304  0.8792690287535668  0.6032062742238092  1.0000
  H   H4        1.0  0.4954873852561906  0.6207309712355216  0.8967937263605479  1.0000
  H   H5        1.0  0.9954873851427304  0.6207309712355216  0.6032062742238092  1.0000
  H   H6        1.0  0.4954873852561906  0.8792690287535668  0.8967937263605479  1.0000
  H   H7        1.0  0.0045126146303492865  0.12073097161812212  0.39679372565561083  1.0000
  H   H8        1.0  0.5045126152049597  0.3792690285677223  0.10320627504932631  1.0000
  H   H9        1.0  0.9341703096634564  0.5045143255359328  0.32117443843223376  1.0000
  H   H10       1.0  0.43417030977691656  0.9954856744531556  0.17882556227270333  1.0000
  H   H11       1.0  0.06582969010962332  0.004514325350088369  0.6788255629776404  1.0000
  H   H12       1.0  0.5658296899961632  0.4954856742673111  0.8211744376067167  1.0000
  H   H13       1.0  0.06582969010962332  0.4954856742673111  0.6788255629776404  1.0000
  H   H14       1.0  0.5658296899961632  0.004514325350088369  0.8211744376067167  1.0000
  H   H15       1.0  0.9341703096634564  0.9954856744531556  0.32117443843223376  1.0000
  H   H16       1.0  0.43417030977691656  0.5045143255359328  0.17882556227270333  1.0000
  H   H17       1.0  0.7628318430440584  0.5160140393401196  0.2916284279145942  1.0000
  H   H18       1.0  0.2628318431575184  0.9839859606489688  0.20837157279034293  1.0000
  H   H19       1.0  0.2371681574170921  0.01601403915427516  0.7083715719648258  1.0000
  H   H20       1.0  0.7371681573036319  0.48398596046312437  0.7916284270890771  1.0000
  H   H21       1.0  0.2371681574170921  0.48398596046312437  0.7083715719648258  1.0000
  H   H22       1.0  0.7371681573036319  0.01601403915427516  0.7916284270890771  1.0000
  H   H23       1.0  0.7628318430440584  0.9839859606489688  0.2916284279145942  1.0000
  H   H24       1.0  0.2628318431575184  0.5160140393401196  0.20837157279034293  1.0000
  H   H25       1.0  0.664491423777982  0.4033491973299656  0.34755945191670784  1.0000
  H   H26       1.0  0.16449142389144217  0.09665080285587886  0.15244054878822924  1.0000
  H   H27       1.0  0.3355085766831683  0.9033491969473652  0.6524405479627121  1.0000
  H   H28       1.0  0.8355085765697081  0.5966508030417232  0.8475594510911908  1.0000
  H   H29       1.0  0.3355085766831683  0.5966508030417232  0.6524405479627121  1.0000
  H   H30       1.0  0.8355085765697081  0.9033491969473652  0.8475594510911908  1.0000
  H   H31       1.0  0.664491423777982  0.09665080285587886  0.34755945191670784  1.0000
  H   H32       1.0  0.16449142389144217  0.4033491973299656  0.15244054878822924  1.0000
  H   H33       1.0  0.9869192301654057  0.24999999980869977  0.4581380671549384  1.0000
  H   H34       1.0  0.48691923027886574  0.24999999980869977  0.04186193201954455  1.0000
  H   H35       1.0  0.013080770295744715  0.7499999999945441  0.5418619327244817  1.0000
  H   H36       1.0  0.5130807701822846  0.7499999999945441  0.9581380678598754  1.0000
  H   H37       1.0  0.028839997103063734  0.24999999980869977  0.9041115839105691  1.0000
  H   H38       1.0  0.5288399969896036  0.24999999980869977  0.595888416673788  1.0000
  H   H39       1.0  0.9711600033580866  0.7499999999945441  0.09588841596885096  1.0000
  H   H40       1.0  0.47116000278347614  0.7499999999945441  0.40411158320563195  1.0000
  H   H41       1.0  0.7715884901428406  0.3731132366105825  0.9199005804214228  1.0000
  H   H42       1.0  0.2715884902563007  0.12688676357526196  0.5800994186324802  1.0000
  H   H43       1.0  0.2284115096302392  0.873113236227982  0.08009941945799721  1.0000
  H   H44       1.0  0.7284115102048497  0.6268867637611064  0.4199005812469399  1.0000
  H   H45       1.0  0.2284115096302392  0.6268867637611064  0.08009941945799721  1.0000
  H   H46       1.0  0.7284115102048497  0.873113236227982  0.4199005812469399  1.0000
  H   H47       1.0  0.7715884901428406  0.12688676357526196  0.9199005804214228  1.0000
  H   H48       1.0  0.2715884902563007  0.3731132366105825  0.5800994186324802  1.0000
  C   C1        1.0  0.8751863948557637  0.32001393854792115  0.4146625405468471  1.0000
  C   C2        1.0  0.3751863949692237  0.17998606106947837  0.08533746015809  1.0000
  C   C3        1.0  0.12481360491731619  0.8200139387337656  0.585337459332573  1.0000
  C   C4        1.0  0.6248136048038561  0.6799860612553228  0.91466253972133  1.0000
  C   C5        1.0  0.12481360491731619  0.6799860612553228  0.585337459332573  1.0000
  C   C6        1.0  0.6248136048038561  0.8200139387337656  0.91466253972133  1.0000
  C   C7        1.0  0.8751863948557637  0.17998606106947837  0.4146625405468471  1.0000
  C   C8        1.0  0.3751863949692237  0.32001393854792115  0.08533746015809  1.0000
  C   C9        1.0  0.929976118964304  0.3851255319925919  0.3885000780591193  1.0000
  C   C10       1.0  0.4299761190777641  0.11487446762480757  0.11149992264581782  1.0000
  C   C11       1.0  0.07002388080877582  0.8851255321784364  0.6114999218203008  1.0000
  C   C12       1.0  0.5700238806953157  0.614874467810652  0.8885000772336021  1.0000
  C   C13       1.0  0.07002388080877582  0.614874467810652  0.6114999218203008  1.0000
  C   C14       1.0  0.5700238806953157  0.8851255321784364  0.8885000772336021  1.0000
  C   C15       1.0  0.929976118964304  0.11487446762480757  0.3885000780591193  1.0000
  C   C16       1.0  0.4299761190777641  0.3851255319925919  0.11149992264581782  1.0000
  C   C17       1.0  0.8901750541623553  0.45543714715424677  0.34817341504333665  1.0000
  C   C18       1.0  0.39017505427581545  0.04456285303159767  0.15182658413114627  1.0000
  C   C19       1.0  0.10982494561072444  0.9554371473400913  0.6518265848360834  1.0000
  C   C20       1.0  0.6098249454972644  0.5445628526489972  0.8481734157482738  1.0000
  C   C21       1.0  0.10982494561072444  0.5445628526489972  0.6518265848360834  1.0000
  C   C22       1.0  0.6098249454972644  0.9554371473400913  0.8481734157482738  1.0000
  C   C23       1.0  0.8901750541623553  0.04456285303159767  0.34817341504333665  1.0000
  C   C24       1.0  0.39017505427581545  0.45543714715424677  0.15182658413114627  1.0000
  C   C25       1.0  0.7946602380556675  0.4621224336313724  0.33165070654783113  1.0000
  C   C26       1.0  0.29466023816912773  0.037877566554472074  0.1683492926266518  1.0000
  C   C27       1.0  0.20533976171741214  0.9621224332487719  0.668349293331589  1.0000
  C   C28       1.0  0.7053397616039521  0.5378775667403166  0.8316507072527682  1.0000
  C   C29       1.0  0.20533976171741214  0.5378775667403166  0.668349293331589  1.0000
  C   C30       1.0  0.7053397616039521  0.9621224332487719  0.8316507072527682  1.0000
  C   C31       1.0  0.7946602380556675  0.037877566554472074  0.33165070654783113  1.0000
  C   C32       1.0  0.29466023816912773  0.4621224336313724  0.1683492926266518  1.0000
  C   C33       1.0  0.7390726245394382  0.3984324493460866  0.35930317026514513  1.0000
  C   C34       1.0  0.23907262396482773  0.10156755027131287  0.14069683043979195  1.0000
  C   C35       1.0  0.26092737592171217  0.898432449531931  0.640696829614275  1.0000
  C   C36       1.0  0.7609273758082521  0.6015675504571574  0.8593031694396281  1.0000
  C   C37       1.0  0.26092737592171217  0.6015675504571574  0.640696829614275  1.0000
  C   C38       1.0  0.7609273758082521  0.898432449531931  0.8593031694396281  1.0000
  C   C39       1.0  0.7390726245394382  0.10156755027131287  0.35930317026514513  1.0000
  C   C40       1.0  0.23907262396482773  0.3984324493460866  0.14069683043979195  1.0000
  C   C41       1.0  0.778529331341607  0.32746646083881165  0.4025107709705208  1.0000
  C   C42       1.0  0.2785293314550671  0.17253353934703278  0.09748922973441634  1.0000
  C   C43       1.0  0.22147066843147284  0.827466461024656  0.5974892289088992  1.0000
  C   C44       1.0  0.7214706683180127  0.6725335389644324  0.9025107701450037  1.0000
  C   C45       1.0  0.22147066843147284  0.6725335389644324  0.5974892289088992  1.0000
  C   C46       1.0  0.7214706683180127  0.827466461024656  0.9025107701450037  1.0000
  C   C47       1.0  0.778529331341607  0.17253353934703278  0.4025107709705208  1.0000
  C   C48       1.0  0.2785293314550671  0.32746646083881165  0.09748922973441634  1.0000
  C   C49       1.0  0.9542117905723762  0.2500007001328602  0.9072519121598329  1.0000
  C   C50       1.0  0.4542117906858362  0.24999930005298426  0.5927480868940701  1.0000
  C   C51       1.0  0.045788209200703645  0.7500006997502597  0.0927480877195871  1.0000
  C   C52       1.0  0.5457882097753142  0.7499993002388287  0.40725191298535  1.0000
  C   C53       1.0  0.9042164322391109  0.31767345065624314  0.9103034526394359  1.0000
  C   C54       1.0  0.40421643166450033  0.18232654896115635  0.589696546414467  1.0000
  C   C55       1.0  0.09578356822203955  0.8176734508420875  0.08969654723998415  1.0000
  C   C56       1.0  0.5957835681085795  0.6823265491470009  0.41030345346495295  1.0000
  C   C57       1.0  0.09578356822203955  0.6823265491470009  0.08969654723998415  1.0000
  C   C58       1.0  0.5957835681085795  0.8176734508420875  0.41030345346495295  1.0000
  C   C59       1.0  0.9042164322391109  0.18232654896115635  0.9103034526394359  1.0000
  C   C60       1.0  0.40421643166450033  0.31767345065624314  0.589696546414467  1.0000
  C   C61       1.0  0.8088814908578196  0.3196515384166976  0.9164261739173244  1.0000
  C   C62       1.0  0.3088814909712797  0.18034846176914687  0.5835738251365785  1.0000
  C   C63       1.0  0.1911185089152602  0.8196515380340971  0.08357382596209553  1.0000
  C   C64       1.0  0.6911185088018  0.6803484619549913  0.4164261747428416  1.0000
  C   C65       1.0  0.1911185089152602  0.6803484619549913  0.08357382596209553  1.0000
  C   C66       1.0  0.6911185088018  0.8196515380340971  0.4164261747428416  1.0000
  C   C67       1.0  0.8088814908578196  0.18034846176914687  0.9164261739173244  1.0000
  C   C68       1.0  0.3088814909712797  0.3196515384166976  0.5835738251365785  1.0000
  C   C69       1.0  0.7624533168349525  0.24999999980869977  0.9195321021476505  1.0000
  C   C70       1.0  0.26245331694841273  0.24999999980869977  0.5804678984367068  1.0000
  C   C71       1.0  0.23754668293812717  0.7499999999945441  0.08046789773176966  1.0000
  C   C72       1.0  0.7375466828246671  0.7499999999945441  0.41953210144271325  1.0000
  N   N1        1.0  0.9169801822676611  0.2500007001328602  0.44500844294943287  1.0000
  N   N2        1.0  0.4169801823811211  0.24999930005298426  0.05499155775550429  1.0000
  N   N3        1.0  0.08301981819348936  0.7500006997502597  0.5549915569299873  1.0000
  N   N4        1.0  0.5830198180800292  0.7499993002388287  0.9450084421239158  1.0000
  N   N5        1.0  0.9546503653898847  0.3898489001254507  0.8987893605774878  1.0000
  N   N6        1.0  0.45465036550334476  0.11015109949194885  0.6012106384764152  1.0000
  N   N7        1.0  0.04534963507126569  0.889848900311295  0.10121063930193228  1.0000
  N   N8        1.0  0.5453496349578056  0.6101510996777934  0.3987893614030048  1.0000
  N   N9        1.0  0.04534963507126569  0.6101510996777934  0.10121063930193228  1.0000
  N   N10       1.0  0.5453496349578056  0.889848900311295  0.3987893614030048  1.0000
  N   N11       1.0  0.9546503653898847  0.11015109949194885  0.8987893605774878  1.0000
  N   N12       1.0  0.45465036550334476  0.3898489001254507  0.6012106384764152  1.0000
  N   N13       1.0  0.6633459630808609  0.24999999980869977  0.9372614880703719  1.0000
  N   N14       1.0  0.16334596319432101  0.24999999980869977  0.5627385125139852  1.0000
  N   N15       1.0  0.33665403738028943  0.7499999999945441  0.0627385118090481  1.0000
  N   N16       1.0  0.8366540372668294  0.7499999999945441  0.437261488895889  1.0000
  O   O1        1.0  0.9102331712419842  0.4485904444848188  0.8652696083874081  1.0000
  O   O2        1.0  0.41023317135544435  0.051409555132580755  0.6347303921969492  1.0000
  O   O3        1.0  0.08976682921916612  0.9485904446706631  0.13473039149201196  1.0000
  O   O4        1.0  0.5897668291057061  0.5514095553184252  0.36526960768247096  1.0000
  O   O5        1.0  0.08976682921916612  0.5514095553184252  0.13473039149201196  1.0000
  O   O6        1.0  0.5897668291057061  0.9485904446706631  0.36526960768247096  1.0000
  O   O7        1.0  0.9102331712419842  0.051409555132580755  0.8652696083874081  1.0000
  O   O8        1.0  0.41023317135544435  0.4485904444848188  0.6347303921969492  1.0000
  O   O9        1.0  0.03945226117809098  0.38696573945484947  0.9206887015831562  1.0000
  O   O10       1.0  0.5394522610646308  0.11303426016255007  0.5793112990012009  1.0000
  O   O11       1.0  0.9605477385949888  0.8869657396406939  0.0793112982962638  1.0000
  O   O12       1.0  0.46054773870844895  0.6130342603483945  0.42068870240867334  1.0000
  O   O13       1.0  0.9605477385949888  0.6130342603483945  0.0793112982962638  1.0000
  O   O14       1.0  0.46054773870844895  0.8869657396406939  0.42068870240867334  1.0000
  O   O15       1.0  0.03945226117809098  0.11303426016255007  0.9206887015831562  1.0000
  O   O16       1.0  0.5394522610646308  0.38696573945484947  0.5793112990012009  1.0000
  O   O17       1.0  0.6228196195843758  0.31258400000586933  0.9463193618472524  1.0000
  O   O18       1.0  0.12281961969783593  0.18741600017997515  0.5536806387371047  1.0000
  O   O19       1.0  0.3771803801887039  0.8125839996232688  0.05368063803216762  1.0000
  O   O20       1.0  0.8771803807633144  0.6874160003658196  0.4463193611423153  1.0000
  O   O21       1.0  0.3771803801887039  0.6874160003658196  0.05368063803216762  1.0000
  O   O22       1.0  0.8771803807633144  0.8125839996232688  0.4463193611423153  1.0000
  O   O23       1.0  0.6228196195843758  0.18741600017997515  0.9463193618472524  1.0000
  O   O24       1.0  0.12281961969783593  0.31258400000586933  0.5536806387371047  1.0000
  S   S1        1.0  0.7043027656022531  0.24999999980869977  0.4358986622880793  1.0000
  S   S2        1.0  0.2043027657157133  0.24999999980869977  0.06410133688640361  1.0000
  S   S3        1.0  0.2956972348588972  0.7499999999945441  0.5641013375913407  1.0000
  S   S4        1.0  0.7956972347454371  0.7499999999945441  0.9358986629930165  1.0000
