data_image0
_chemical_formula_structural       H32C42O4Br4
_chemical_formula_sum              "H32 C42 O4 Br4"
_cell_length_a       9.748724355998538
_cell_length_b       9.901541205504218
_cell_length_c       10.803208440032998
_cell_angle_alpha    93.347144608355
_cell_angle_beta     97.10203746342135
_cell_angle_gamma    118.75834101518994

_space_group_name_H-M_alt    "P 1"
_space_group_IT_number       1

loop_
  _space_group_symop_operation_xyz
  'x, y, z'

loop_
  _atom_site_type_symbol
  _atom_site_label
  _atom_site_symmetry_multiplicity
  _atom_site_fract_x
  _atom_site_fract_y
  _atom_site_fract_z
  _atom_site_occupancy
  H   H1        1.0  0.268588624853955  0.06400748571639342  0.6083993743130457  1.0000
  H   H2        1.0  0.7314113754757421  0.9359925148458912  0.3916006250524902  1.0000
  H   H3        1.0  0.33531789906365844  0.11637789951477283  0.9186094320888798  1.0000
  H   H4        1.0  0.6646821009013034  0.8836221000445774  0.08139056821204071  1.0000
  H   H5        1.0  0.773086596751519  0.5581333732953057  0.9809564790843652  1.0000
  H   H6        1.0  0.22691340321344283  0.44186662626404455  0.019043521216555323  1.0000
  H   H7        1.0  0.6740532417125956  0.6396580524239397  0.7923736657602688  1.0000
  H   H8        1.0  0.32594675825236624  0.3603419471354106  0.20762633454065166  1.0000
  H   H9        1.0  0.5080680724068677  0.6728857170573268  0.5918605626617315  1.0000
  H   H10       1.0  0.4919319279228295  0.327114283504958  0.4081394367038046  1.0000
  H   H11       1.0  0.31586384007940616  0.637052483639811  0.4024880571033678  1.0000
  H   H12       1.0  0.6841361596820739  0.3629475157694478  0.597511942256083  1.0000
  H   H13       1.0  0.9959396922842012  0.16967556356430344  0.469008393873975  1.0000
  H   H14       1.0  0.004060307680760688  0.8303244359950468  0.5309916064269455  1.0000
  H   H15       1.0  0.0907155973016002  0.3868019346450673  0.7761170911221772  1.0000
  H   H16       1.0  0.9092844032315787  0.6131980660673088  0.2238829091848285  1.0000
  H   H17       1.0  0.8753645130697297  0.3347852775128699  0.8976701217806763  1.0000
  H   H18       1.0  0.12463548746344918  0.6652147231995061  0.10232987852632949  1.0000
  H   H19       1.0  0.7170494013012824  0.07229109980059223  0.9596757176911218  1.0000
  H   H20       1.0  0.2829505992318967  0.9277089009117839  0.04032428261588377  1.0000
  H   H21       1.0  0.7792089747166987  0.8626536891247819  0.9010828332552693  1.0000
  H   H22       1.0  0.2207910242248942  0.13734631043917384  0.09891716704672783  1.0000
  H   H23       1.0  0.9956339359057556  0.9150227668664489  0.7781979686352171  1.0000
  H   H24       1.0  0.004366064423941778  0.08497723369583585  0.22180203073031907  1.0000
  H   H25       1.0  0.564909510498314  0.11904428744777003  0.7156406678133667  1.0000
  H   H26       1.0  0.435090490034865  0.880955713264606  0.28435933249363904  1.0000
  H   H27       1.0  0.4391633383186513  0.9164330565691846  0.6584486082352489  1.0000
  H   H28       1.0  0.560836662011046  0.08356694399310005  0.3415513911302871  1.0000
  H   H29       1.0  0.28587846904747827  0.009771377309000169  0.3697785071623351  1.0000
  H   H30       1.0  0.7141215309174835  0.99022862225035  0.6302214931385854  1.0000
  H   H31       1.0  0.2703143396734288  0.8508163871089967  0.4489392078576873  1.0000
  H   H32       1.0  0.7296856608597501  0.14918361360337937  0.5510607924493184  1.0000
  C   C1        1.0  0.35397421120556954  0.27946256928762775  0.7886787519847261  1.0000
  C   C2        1.0  0.6460257891241277  0.720537431274657  0.2113212473808098  1.0000
  C   C3        1.0  0.408415120490669  0.23059254118838846  0.8917725902223462  1.0000
  C   C4        1.0  0.591584879270811  0.7694074582208704  0.10822740913710462  1.0000
  C   C5        1.0  0.559859097638635  0.33375516630955243  0.9595953345432404  1.0000
  C   C6        1.0  0.440140902894544  0.6662448344028237  0.0404046657637653  1.0000
  C   C7        1.0  0.6559753236589377  0.4801241899133768  0.9254743342226357  1.0000
  C   C8        1.0  0.3440246761025422  0.519875809495882  0.0745256651368152  1.0000
  C   C9        1.0  0.5992397130057856  0.5264619852404628  0.8203697610523331  1.0000
  C   C10       1.0  0.40076028650402445  0.4735380154765189  0.17963023925574914  1.0000
  C   C11       1.0  0.44728632494327314  0.42652663125655466  0.7523893844962778  1.0000
  C   C12       1.0  0.5527136750216887  0.5734733683027956  0.2476106158046428  1.0000
  C   C13       1.0  0.35824987132341085  0.44199691914779565  0.6394241223127693  1.0000
  C   C14       1.0  0.641750128641551  0.5580030804115546  0.3605758779881512  1.0000
  C   C15       1.0  0.39606717760178484  0.5638720295473635  0.5673180662319178  1.0000
  C   C16       1.0  0.6039328223631769  0.43612797001198667  0.43268193406900274  1.0000
  C   C17       1.0  0.28800543533405354  0.5441231686796704  0.46049782486025936  1.0000
  C   C18       1.0  0.7119945649956437  0.4558768318826143  0.5395021745052767  1.0000
  C   C19       1.0  0.1454304680891998  0.40351398688580886  0.42758622438463373  1.0000
  C   C20       1.0  0.8545695314206103  0.5964860138311728  0.5724137759234487  1.0000
  C   C21       1.0  0.10492253298567446  0.28030224404465753  0.4984297477567748  1.0000
  C   C22       1.0  0.8950774669792874  0.7196977555146927  0.5015702525441458  1.0000
  C   C23       1.0  0.2126165875628822  0.3026589800615175  0.604877106060615  1.0000
  C   C24       1.0  0.7873834124020797  0.6973410194978328  0.3951228942403055  1.0000
  C   C25       1.0  0.19428291172205697  0.18795148439118722  0.6990203556174323  1.0000
  C   C26       1.0  0.805717088811122  0.8120485163211889  0.3009796446895734  1.0000
  C   C27       1.0  0.057388265264828486  0.1539994035299072  0.7693432482123048  1.0000
  C   C28       1.0  0.9426117336767644  0.8460005960340485  0.23065675208969244  1.0000
  C   C29       1.0  0.023086528715008752  0.2717172556966051  0.8038343578494067  1.0000
  C   C30       1.0  0.9769134718181702  0.7282827450157711  0.19616564245759888  1.0000
  C   C31       1.0  0.9015513261175558  0.2423414082676698  0.872294772147563  1.0000
  C   C32       1.0  0.098448673847406  0.7576585912916804  0.12770522815335758  1.0000
  C   C33       1.0  0.8127177358365415  0.09470928742539912  0.9069477766486325  1.0000
  C   C34       1.0  0.18728226469663747  0.905290713286977  0.0930522236583732  1.0000
  C   C35       1.0  0.8469765760284053  0.9775057897007894  0.8730335876942104  1.0000
  C   C36       1.0  0.15302342430129198  0.022494210861495348  0.12696641167132572  1.0000
  C   C37       1.0  0.9686836085950677  0.0064119091879478824  0.8045222461071915  1.0000
  C   C38       1.0  0.031316391734629426  0.9935880913743369  0.19547775325834468  1.0000
  C   C39       1.0  0.515675056682372  0.03184654905095159  0.6315395387704493  1.0000
  C   C40       1.0  0.48432494385080693  0.9681534516614244  0.36846046153655637  1.0000
  C   C41       1.0  0.35327786965052604  0.968503783355109  0.4298155466841981  1.0000
  C   C42       1.0  0.6467221306791712  0.031496217207175915  0.570184452681338  1.0000
  O   O1        1.0  0.1712285732354081  0.043439396564681425  0.6428441033891195  1.0000
  O   O2        1.0  0.8287714265260719  0.9565606028445773  0.3571558959703314  1.0000
  O   O3        1.0  0.4206467004776282  0.07397926163009318  0.5463104095470709  1.0000
  O   O4        1.0  0.5793533000555507  0.9260207390822829  0.4536895907599348  1.0000
  Br  Br1       1.0  0.6353828224064835  0.27314440241677745  0.10603769841642403  1.0000
  Br  Br2       1.0  0.3646171779232137  0.7268555981455073  0.8939623009491119  1.0000
  Br  Br3       1.0  0.9997518251141312  0.37741547197131  0.28056296360790983  1.0000
  Br  Br4       1.0  0.00024817541904769607  0.6225845287410661  0.7194370366990959  1.0000
