data_image0
_chemical_formula_structural       H36C64N8S8
_chemical_formula_sum              "H36 C64 N8 S8"
_cell_length_a       20.05847550854886
_cell_length_b       9.233668514329116
_cell_length_c       7.013740579156819
_cell_angle_alpha    90.0
_cell_angle_beta     93.3141514688723
_cell_angle_gamma    90.0

_space_group_name_H-M_alt    "P 1"
_space_group_IT_number       1

loop_
  _space_group_symop_operation_xyz
  'x, y, z'

loop_
  _atom_site_type_symbol
  _atom_site_label
  _atom_site_symmetry_multiplicity
  _atom_site_fract_x
  _atom_site_fract_y
  _atom_site_fract_z
  _atom_site_occupancy
  H   H1        1.0  0.18922754795190702  0.4908514609298062  0.3422559947107847  1.0000
  H   H2        1.0  0.3107724523510948  0.9908514601538894  0.6577440053317473  1.0000
  H   H3        1.0  0.8107724521100591  0.5091485396843466  0.6577440048547251  1.0000
  H   H4        1.0  0.6892275477108712  0.009148539377270205  0.3422559942337626  1.0000
  H   H5        1.0  0.9535024436470223  0.12477836606458594  0.557486056066788  1.0000
  H   H6        1.0  0.5464975561747685  0.6247783652886693  0.44251394444761255  1.0000
  H   H7        1.0  0.046497556415804185  0.8752216345495668  0.4425139449246347  1.0000
  H   H8        1.0  0.45350244388805816  0.37522163424249044  0.55748605654381  1.0000
  H   H9        1.0  0.14033311036108942  0.7145754387609611  0.3635389232559703  1.0000
  H   H10       1.0  0.3596668894425356  0.21457543953687785  0.6364610767064556  1.0000
  H   H11       1.0  0.8596668897017372  0.28542456077019857  0.6364610777354524  1.0000
  H   H12       1.0  0.6403331101200538  0.7854245610772749  0.3635389227789483  1.0000
  H   H13       1.0  0.28567690224092496  0.3760349426245648  0.4270763732852825  1.0000
  H   H14       1.0  0.21432309756270007  0.8760349429316412  0.5729236266771434  1.0000
  H   H15       1.0  0.7143230973216643  0.6239650569065949  0.5729236262001213  1.0000
  H   H16       1.0  0.785676902499266  0.12396505768251159  0.42707637288836636  1.0000
  H   H17       1.0  0.3234881774763485  0.2512689053543062  0.2710774124531344  1.0000
  H   H18       1.0  0.17651182232727644  0.7512689056613826  0.7289225875092915  1.0000
  H   H19       1.0  0.6765118220871011  0.7487310941768535  0.7289225884581823  1.0000
  H   H20       1.0  0.8234881777346896  0.24873109386977704  0.27107741205621827  1.0000
  H   H21       1.0  0.2653624527103477  0.37995847203692995  0.17175674621409887  1.0000
  H   H22       1.0  0.23463754759265412  0.8799584712610131  0.8282432538284329  1.0000
  H   H23       1.0  0.7346375473516183  0.6200415285772228  0.8282432533514109  1.0000
  H   H24       1.0  0.7653624524693119  0.12004152827014647  0.1717567457370768  1.0000
  H   H25       1.0  0.8265166856535311  0.5117242580960583  0.11072161539926166  1.0000
  H   H26       1.0  0.6734833146667761  0.011724257788981892  0.889278383769332  1.0000
  H   H27       1.0  0.17348331440843512  0.4882757425180945  0.889278384166248  1.0000
  H   H28       1.0  0.32651668539518985  0.9882757417421778  0.11072161579617774  1.0000
  H   H29       1.0  0.8987632401731731  0.2993863398615684  0.052180559376841566  1.0000
  H   H30       1.0  0.6012367596477571  0.7993863390856516  0.9478194397116461  1.0000
  H   H31       1.0  0.10123675988879285  0.7006136607525845  0.9478194401886681  1.0000
  H   H32       1.0  0.39876323991483215  0.20061366044550805  0.05218055977375766  1.0000
  H   H33       1.0  0.9930201494612184  0.7989751893899365  0.01655376236391227  1.0000
  H   H34       1.0  0.5069798503605724  0.29897518908286014  0.9834462381504883  1.0000
  H   H35       1.0  0.006979850101370815  0.20102481122421625  0.9834462371214915  1.0000
  H   H36       1.0  0.4930201497022542  0.7010248115312926  0.01655376284093437  1.0000
  C   C1        1.0  0.14724672376215553  0.2831839334433789  0.38311020496275106  1.0000
  C   C2        1.0  0.35275327604146944  0.7831839326674621  0.6168897949996748  1.0000
  C   C3        1.0  0.8527532758004336  0.716816067170774  0.6168897945226526  1.0000
  C   C4        1.0  0.6472467240213571  0.2168160668636975  0.38311020599174783  1.0000
  C   C5        1.0  0.1452519066364602  0.43127569219321665  0.38186920190136653  1.0000
  C   C6        1.0  0.35474809366654164  0.931275692500293  0.6181307981411652  1.0000
  C   C7        1.0  0.8547480934255058  0.5687243084209361  0.6181307976641431  1.0000
  C   C8        1.0  0.6452519063954245  0.06872430811385978  0.3818692014243445  1.0000
  C   C9        1.0  0.08890464010412372  0.5172555396144214  0.42497509677757356  1.0000
  C   C10       1.0  0.41109535969950123  0.017255539307345004  0.5750249031848523  1.0000
  C   C11       1.0  0.9110953599578423  0.48274446099973134  0.5750249027879362  1.0000
  C   C12       1.0  0.5889046403633253  0.9827444602238147  0.4249750978065704  1.0000
  C   C13       1.0  0.027483281665898883  0.4542747331129165  0.4789471483148269  1.0000
  C   C14       1.0  0.47251671813772617  0.9542747323369999  0.521052851647599  1.0000
  C   C15       1.0  0.9725167178966903  0.5457252675012363  0.5210528511705769  1.0000
  C   C16       1.0  0.5274832819242399  0.04572526719415986  0.47894714791791076  1.0000
  C   C17       1.0  0.018807583739114647  0.30165273159606965  0.4922936190821402  1.0000
  C   C18       1.0  0.48119241606451035  0.801652731903146  0.5077063808802856  1.0000
  C   C19       1.0  0.9811924163228515  0.6983472679350899  0.5077063804833696  1.0000
  C   C20       1.0  0.5188075839983163  0.1983472687110068  0.49229362011113703  1.0000
  C   C21       1.0  0.958576602028729  0.24190877077010733  0.5468550018051427  1.0000
  C   C22       1.0  0.5414233982924386  0.7419087699941905  0.4531449987893638  1.0000
  C   C23       1.0  0.04142339803409754  0.7580912298440455  0.45314499918628  1.0000
  C   C24       1.0  0.4585766017695275  0.258091229536969  0.5468550007761459  1.0000
  C   C25       1.0  0.09412219458099214  0.6687409235470748  0.4115761463160532  1.0000
  C   C26       1.0  0.40587780572200965  0.16874092323999845  0.5884238537264787  1.0000
  C   C27       1.0  0.9058778054818344  0.33125907598408477  0.5884238546753694  1.0000
  C   C28       1.0  0.5941221943399564  0.8312590762911612  0.41157614583903107  1.0000
  C   C29       1.0  0.27788540642975296  0.31153255778415845  0.29628146527049226  1.0000
  C   C30       1.0  0.22211459337387204  0.8115325580912349  0.7037185346919336  1.0000
  C   C31       1.0  0.7221145936330736  0.6884674417470011  0.7037185357209303  1.0000
  C   C32       1.0  0.7778854061887172  0.18846744252291794  0.29628146479347023  1.0000
  C   C33       1.0  0.904823801712719  0.6708743692051499  0.0705195971263593  1.0000
  C   C34       1.0  0.5951761986084486  0.1708743699810667  0.9294804034681473  1.0000
  C   C35       1.0  0.09517619834924708  0.3291256303260097  0.9294804024391505  1.0000
  C   C36       1.0  0.40482380145437785  0.8291256306330861  0.07051959752327536  1.0000
  C   C37       1.0  0.8786680184568773  0.5265052023966038  0.07887356938097739  1.0000
  C   C38       1.0  0.6213319813640529  0.026505202089527457  0.9211264297075102  1.0000
  C   C39       1.0  0.1213319816050887  0.4734947971345557  0.9211264301845324  1.0000
  C   C40       1.0  0.37866801869791306  0.9734947974416321  0.07887356985799947  1.0000
  C   C41       1.0  0.9181814405769718  0.4094721111259979  0.047384532748937204  1.0000
  C   C42       1.0  0.5818185592439585  0.9094721114330744  0.9526154663395504  1.0000
  C   C43       1.0  0.08181855948499431  0.5905278884051617  0.9526154668165725  1.0000
  C   C44       1.0  0.4181814408180075  0.0905278891810785  0.04738453322595927  1.0000
  C   C45       1.0  0.986729380430831  0.42760372801696495  0.005517607043579508  1.0000
  C   C46       1.0  0.5132706198894761  0.9276037283240413  0.9944823921250141  1.0000
  C   C47       1.0  0.013270619631135088  0.572396272597188  0.9944823925219302  1.0000
  C   C48       1.0  0.4867293801724899  0.07239627229011149  0.005517607440495556  1.0000
  C   C49       1.0  0.9722297102168027  0.6902140985578854  0.026401629110260214  1.0000
  C   C50       1.0  0.5277702896041278  0.19021409825080898  0.9735983699782275  1.0000
  C   C51       1.0  0.02777028984516346  0.30978590205626744  0.9735983704552494  1.0000
  C   C52       1.0  0.4722297104578383  0.8097859023633438  0.026401629587282295  1.0000
  C   C53       1.0  0.8642595201111307  0.7932016780366461  0.10803780822252511  1.0000
  C   C54       1.0  0.6357404802091764  0.2932016777295697  0.8919621909460685  1.0000
  C   C55       1.0  0.13574047995083532  0.20679832257750674  0.8919621913429846  1.0000
  C   C56       1.0  0.36425951985278965  0.70679832180159  0.1080378086194412  1.0000
  C   C57       1.0  0.7972600505576694  0.7774130053358921  0.1544520349122051  1.0000
  C   C58       1.0  0.7027399497634983  0.27741300502881566  0.8455479656823014  1.0000
  C   C59       1.0  0.20273994950515717  0.22258699419526756  0.8455479660792176  1.0000
  C   C60       1.0  0.29726005029846786  0.722586994502344  0.15445203388320833  1.0000
  C   C61       1.0  0.8903679658626285  0.9346085780107748  0.10025035922258335  1.0000
  C   C62       1.0  0.6096320339591624  0.4346085777036985  0.8997496412918171  1.0000
  C   C63       1.0  0.1096320342001982  0.06539142260337792  0.8997496417688393  1.0000
  C   C64       1.0  0.3903679661028036  0.5653914218274612  0.10025035827369257  1.0000
  N   N1        1.0  0.741678707120729  0.7607803419733652  0.19376188259301447  1.0000
  N   N2        1.0  0.7583212927010619  0.2607803416662888  0.8062381179213862  1.0000
  N   N3        1.0  0.25832129294123707  0.23921965864078765  0.8062381169724954  1.0000
  N   N4        1.0  0.2416787073617647  0.7392196578648709  0.1937618830700365  1.0000
  N   N5        1.0  0.9139184041180006  0.050691346486354566  0.095342932888024  1.0000
  N   N6        1.0  0.5860815957037901  0.5506913457104378  0.9046570676263767  1.0000
  N   N7        1.0  0.0860815959439654  0.9493086541277983  0.9046570666774857  1.0000
  N   N8        1.0  0.41391840435903643  0.4493086538207219  0.0953429333650461  1.0000
  S   S1        1.0  0.08034730884747816  0.17688970504684318  0.4431122412478931  1.0000
  S   S2        1.0  0.4196526914555237  0.6768897053539196  0.5568877587946387  1.0000
  S   S3        1.0  0.9196526912153484  0.8231102944843165  0.5568877597435296  1.0000
  S   S4        1.0  0.5803473086064423  0.32311029417724  0.443112240770871  1.0000
  S   S5        1.0  0.2145728571327783  0.17711712711606098  0.32592866140323407  1.0000
  S   S6        1.0  0.2854271426708467  0.6771171274231375  0.6740713385591918  1.0000
  S   S7        1.0  0.7854271429291877  0.8228828724150986  0.6740713381622757  1.0000
  S   S8        1.0  0.7145728573919798  0.32288287210802225  0.32592866243223084  1.0000
