data_image0
_chemical_formula_structural       C12S12I8
_chemical_formula_sum              "C12 S12 I8"
_cell_length_a       10.631419988648899
_cell_length_b       9.147242005543026
_cell_length_c       7.947163576944309
_cell_angle_alpha    90.0
_cell_angle_beta     90.0
_cell_angle_gamma    90.0

_space_group_name_H-M_alt    "P 1"
_space_group_IT_number       1

loop_
  _space_group_symop_operation_xyz
  'x, y, z'

loop_
  _atom_site_type_symbol
  _atom_site_label
  _atom_site_symmetry_multiplicity
  _atom_site_fract_x
  _atom_site_fract_y
  _atom_site_fract_z
  _atom_site_occupancy
  C   C1        1.0  0.6590105336333713  0.7978980479118439  0.09392375188620466  1.0000
  C   C2        1.0  0.15901053404013243  0.7021019522724151  0.9060762472399857  1.0000
  C   C3        1.0  0.34098946555310633  0.29789804821483284  0.40607624830604583  1.0000
  C   C4        1.0  0.8409894660869532  0.2021019514821783  0.593923752078455  1.0000
  C   C5        1.0  0.6592462688411493  0.08283812208541395  0.02833414057982438  1.0000
  C   C6        1.0  0.1592462692479105  0.4171618776115971  0.971665858546366  1.0000
  C   C7        1.0  0.34075373128593645  0.5828381217824251  0.4716658596124261  1.0000
  C   C8        1.0  0.8407537308791753  0.9171618773086082  0.5283341407720749  1.0000
  C   C9        1.0  0.7783276898885452  0.03967343487578979  0.06296865481060261  1.0000
  C   C10       1.0  0.27832769029530635  0.4603265648212213  0.9370313455738983  1.0000
  C   C11       1.0  0.2216723102385406  0.5396734345728009  0.43703134538164784  1.0000
  C   C12       1.0  0.7216723098317793  0.9603265656114581  0.5629686537445425  1.0000
  S   S1        1.0  0.5944187753608933  0.6319383204792384  0.13712205989586573  1.0000
  S   S2        1.0  0.09441877576765448  0.8680616797050206  0.8628779404886352  1.0000
  S   S3        1.0  0.4055812247661924  0.1319383207822273  0.3628779402963847  1.0000
  S   S4        1.0  0.9055812243594312  0.36806168000800954  0.6371220600881162  1.0000
  S   S5        1.0  0.5588658877500601  0.9399894202853292  0.03957482275971076  1.0000
  S   S6        1.0  0.058865888156821256  0.5600105798989299  0.9604251776247902  1.0000
  S   S7        1.0  0.44113411237702566  0.439989420588318  0.4604251774325397  1.0000
  S   S8        1.0  0.9411341119702645  0.06001057910869307  0.5395748229519612  1.0000
  S   S9        1.0  0.809661604864689  0.8551651782318427  0.11207402759192528  1.0000
  S   S10       1.0  0.30966160527145015  0.6448348219524163  0.8879259715342651  1.0000
  S   S11       1.0  0.1903383952623968  0.3551651774416059  0.3879259726003252  1.0000
  S   S12       1.0  0.6903383948556356  0.14483482225540517  0.6120740277841757  1.0000
  I   I1        1.0  0.7600516270288844  0.44286939249504537  0.12409771114579277  1.0000
  I   I2        1.0  0.26005162649503755  0.05713060829519144  0.8759022892387082  1.0000
  I   I3        1.0  0.23994837309820122  0.9428693921920563  0.37590228904645767  1.0000
  I   I4        1.0  0.7399483736320481  0.5571306079922026  0.6240977113380433  1.0000
  I   I5        1.0  0.9427827760263091  0.17671878791666856  0.0560526023765676  1.0000
  I   I6        1.0  0.44278277549246214  0.3232812117803425  0.9439473980079333  1.0000
  I   I7        1.0  0.05721722410077661  0.6767187876136797  0.4439473978156829  1.0000
  I   I8        1.0  0.5572172246346235  0.8232812125705794  0.556052602568818  1.0000
