data_image0
_chemical_formula_structural       H46B20C40N8O8
_chemical_formula_sum              "H46 B20 C40 N8 O8"
_cell_length_a       7.185269401346156
_cell_length_b       10.758574871657663
_cell_length_c       16.036265976581117
_cell_angle_alpha    96.19955123496895
_cell_angle_beta     91.88386102195763
_cell_angle_gamma    100.22461496421244

_space_group_name_H-M_alt    "P 1"
_space_group_IT_number       1

loop_
  _space_group_symop_operation_xyz
  'x, y, z'

loop_
  _atom_site_type_symbol
  _atom_site_label
  _atom_site_symmetry_multiplicity
  _atom_site_fract_x
  _atom_site_fract_y
  _atom_site_fract_z
  _atom_site_occupancy
  H   H1        1.0  0.2238081513872098  0.1813730656146195  0.43042499093568876  1.0000
  H   H2        1.0  0.776191847664835  0.8186269343087348  0.5695750092741882  1.0000
  H   H3        1.0  0.9899287133077674  0.32701443984941364  0.35893994469623713  1.0000
  H   H4        1.0  0.010071285658778116  0.6729855599743378  0.6410600548855612  1.0000
  H   H5        1.0  0.062054267366257895  0.5218962825502802  0.29074703806125474  1.0000
  H   H6        1.0  0.9379457330748326  0.4781037173649561  0.7092529621427275  1.0000
  H   H7        1.0  0.2919389248987201  0.5705247036406734  0.25401954586083564  1.0000
  H   H8        1.0  0.7080610755423703  0.4294752962745629  0.7459804543431465  1.0000
  H   H9        1.0  0.9712593187777903  0.3677820791845822  0.1648854056281376  1.0000
  H   H10       1.0  0.02874068157780105  0.6322179206310513  0.8351145939477658  1.0000
  H   H11       1.0  0.20776739356376797  0.3968271884629343  0.13140405518717285  1.0000
  H   H12       1.0  0.7922326054882768  0.60317281146042  0.8685959450227041  1.0000
  H   H13       1.0  0.7467076572942575  0.527443163463489  0.09768482792456144  1.0000
  H   H14       1.0  0.2532923417577875  0.4725568364598653  0.9023151722853155  1.0000
  H   H15       1.0  0.5636266018113869  0.6640389435782599  0.04114506350237186  1.0000
  H   H16       1.0  0.43637339724065793  0.3359610563450944  0.9588549367075052  1.0000
  H   H17       1.0  0.3731443862115176  0.779779083488153  0.9578128673393287  1.0000
  H   H18       1.0  0.6268556142295729  0.22022091642708314  0.042187132864653455  1.0000
  H   H19       1.0  0.8868873509948093  0.9866967954150371  0.868587725930801  1.0000
  H   H20       1.0  0.11311264970869891  0.013303205445812297  0.13141227428007154  1.0000
  H   H21       1.0  0.07535835287097908  0.8719668561007111  0.9523517330528921  1.0000
  H   H22       1.0  0.9246416460955665  0.12803314372304023  0.047648266528906205  1.0000
  H   H23       1.0  0.6718552361486065  0.11681063997979159  0.8420756183299711  1.0000
  H   H24       1.0  0.3281447628179389  0.8831893598439596  0.15792438125182715  1.0000
  H   H25       1.0  0.6877172550686661  0.9845523241808841  0.7655070377677883  1.0000
  H   H26       1.0  0.3122827438978795  0.015447675642867304  0.23449296181401008  1.0000
  H   H27       1.0  0.2486728817737912  0.8477513705936269  0.7310015249212639  1.0000
  H   H28       1.0  0.7513271186672994  0.15224862932160943  0.26899847528271825  1.0000
  H   H29       1.0  0.7033226619568632  0.19288177782786095  0.676431995924882  1.0000
  H   H30       1.0  0.2966773384842273  0.8071182220873754  0.32356800427910015  1.0000
  H   H31       1.0  0.476985346973245  0.2905080303380324  0.8129427643339862  1.0000
  H   H32       1.0  0.5230146519933008  0.709491969485719  0.187057235247812  1.0000
  H   H33       1.0  0.18722111093835656  0.07250593943985321  0.8486270546686168  1.0000
  H   H34       1.0  0.8127788881136884  0.9274940604835011  0.1513729455412603  1.0000
  H   H35       1.0  0.16356391848964077  0.8933156756507605  0.5524089477555022  1.0000
  H   H36       1.0  0.8364360807393226  0.10668432511860411  0.4475910518331866  1.0000
  H   H37       1.0  0.4540112583918594  0.1144459399979692  0.5171169822931864  1.0000
  H   H38       1.0  0.5459887419637319  0.8855540598176642  0.4828830172827169  1.0000
  H   H39       1.0  0.39566941025003016  0.35281903208581034  0.6314657376400108  1.0000
  H   H40       1.0  0.6043305901910603  0.647180967829426  0.3685342625639713  1.0000
  H   H41       1.0  0.06143450363908459  0.2701027710112487  0.7402495397111886  1.0000
  H   H42       1.0  0.9385654968020061  0.7298972289039877  0.25975046049279354  1.0000
  H   H43       1.0  0.9128253572876561  0.9865896387723907  0.6910225542852054  1.0000
  H   H44       1.0  0.08717464306793508  0.013410361043242667  0.308977445290698  1.0000
  H   H45       1.0  0.0457853149758176  0.16050288431906393  0.55683839435486  1.0000
  H   H46       1.0  0.9542146854652728  0.8394971155961723  0.44316160584912206  1.0000
  B   B1        1.0  0.2582732100467399  0.9502240106279563  0.7087488917780027  1.0000
  B   B2        1.0  0.7417267903943505  0.049775989287280026  0.29125110842597934  1.0000
  B   B3        1.0  0.5357491636200682  0.16135684628614272  0.6752909810562502  1.0000
  B   B4        1.0  0.46425083699794084  0.8386431544751038  0.32470901852654366  1.0000
  B   B5        1.0  0.39661986950583455  0.21777289573472158  0.7570297794772827  1.0000
  B   B6        1.0  0.6033801309352559  0.7822271041805148  0.24297022072669938  1.0000
  B   B7        1.0  0.22476088933020916  0.08639261320384864  0.7783503792329992  1.0000
  B   B8        1.0  0.7752391110253822  0.9136073866117849  0.22164962034290406  1.0000
  B   B9        1.0  0.2122028602386475  0.9813049633777852  0.6046712096472514  1.0000
  B   B10       1.0  0.7877971401169438  0.018695036437848218  0.395328789928652  1.0000
  B   B11       1.0  0.38515467817595594  0.11243821420941139  0.5836914048842697  1.0000
  B   B12       1.0  0.6148453225275522  0.8875617866514379  0.41630859532660286  1.0000
  B   B13       1.0  0.35500518697839173  0.24836885609562717  0.6520927484267083  1.0000
  B   B14       1.0  0.6449948133771997  0.7516311437200064  0.3479072511491951  1.0000
  B   B15       1.0  0.16300897173358905  0.19916152769017792  0.7150527175932331  1.0000
  B   B16       1.0  0.8369910287075014  0.8008384722250582  0.2849472826107491  1.0000
  B   B17       1.0  0.07409379945091633  0.03461534180318171  0.6866544229486176  1.0000
  B   B18       1.0  0.9259061995156294  0.9653846580205698  0.3133455766331807  1.0000
  B   B19       1.0  0.15247630815797156  0.13594588965127613  0.6085036386916637  1.0000
  B   B20       1.0  0.8475236908940733  0.8640541102720782  0.3914963615182134  1.0000
  C   C1        1.0  0.41991332338343135  0.36108268743619626  0.3024446918391253  1.0000
  C   C2        1.0  0.5800866756686135  0.6389173124871581  0.6975553083707516  1.0000
  C   C3        1.0  0.2570377150407346  0.24939425893510053  0.38559980033716346  1.0000
  C   C4        1.0  0.7429622839258111  0.750605740888651  0.6144001992446347  1.0000
  C   C5        1.0  0.13725022573345783  0.3207756230954188  0.35056733772467047  1.0000
  C   C6        1.0  0.8627497747076327  0.6792243768198174  0.6494326624793115  1.0000
  C   C7        1.0  0.17438024809309932  0.4905065776072726  0.2539520404919094  1.0000
  C   C8        1.0  0.8256197523479911  0.5094934223079637  0.7460479597120726  1.0000
  C   C9        1.0  0.0991316875547493  0.4401156433295656  0.16396401385532985  1.0000
  C   C10       1.0  0.9008683114972955  0.5598843565937887  0.8360359863545471  1.0000
  C   C11       1.0  0.05270351294652979  0.5434241900690989  0.11748073932376557  1.0000
  C   C12       1.0  0.9472964874945607  0.4565758098461374  0.8825192608802166  1.0000
  C   C13       1.0  0.8889094478456784  0.5758270327971303  0.08905324076276627  1.0000
  C   C14       1.0  0.11109055259541206  0.42417296711810604  0.9109467594412158  1.0000
  C   C15       1.0  0.9484501826474375  0.6869660548277596  0.04872470214115523  1.0000
  C   C16       1.0  0.051549817708153846  0.31303394498787385  0.9512752974347481  1.0000
  C   C17       1.0  0.8341230823444616  0.7588422820557741  0.002529596658174018  1.0000
  C   C18       1.0  0.1658769180966288  0.2411577178594622  0.9974704035458081  1.0000
  C   C19       1.0  0.6350280954539363  0.7341148324566109  0.0031235320890931066  1.0000
  C   C20       1.0  0.36497190351260944  0.26588516736714063  0.9968764674927052  1.0000
  C   C21       1.0  0.5268181595925485  0.7982504282895403  0.9558273182146312  1.0000
  C   C22       1.0  0.4731818407630428  0.20174957152609332  0.04417268136127217  1.0000
  C   C23       1.0  0.6166236005287712  0.8883405730950414  0.906084262345244  1.0000
  C   C24       1.0  0.3833763999123193  0.11165942682019485  0.09391573785873808  1.0000
  C   C25       1.0  0.8149065565953523  0.9154176743592896  0.9053716235209234  1.0000
  C   C26       1.0  0.18509344384573811  0.08458232555594669  0.09462837668305871  1.0000
  C   C27       1.0  0.9214562056365165  0.8510404181697528  0.9534263013695345  1.0000
  C   C28       1.0  0.07854379471907477  0.1489595816458805  0.04657369820636877  1.0000
  C   C29       1.0  0.5913172201827862  0.030766300018255904  0.8049660920625732  1.0000
  C   C30       1.0  0.40868278025830423  0.9692336998969804  0.19503390814140886  1.0000
  C   C31       1.0  0.44259338666066284  0.06733792910977528  0.7480079146823455  1.0000
  C   C32       1.0  0.5574066140428454  0.9326620717510742  0.25199208552852714  1.0000
  C   C33       1.0  0.4299742861848316  0.010222982591741602  0.6490244733131384  1.0000
  C   C34       1.0  0.5700257142562588  0.9897770173234947  0.3509755268908437  1.0000
  C   C35       1.0  0.1373378807303451  0.4716513661680501  0.5460479422888834  1.0000
  C   C36       1.0  0.8626621183216998  0.5283486337553042  0.45395205792099363  1.0000
  C   C37       1.0  0.16973943168000236  0.5705962347737035  0.5040082632314057  1.0000
  C   C38       1.0  0.8302605689380067  0.42940376598754315  0.49599173635138805  1.0000
  C   C39       1.0  0.9668911496931554  0.4022437167200295  0.5432781978049142  1.0000
  C   C40       1.0  0.03310885066243581  0.5977562830956039  0.4567218017709891  1.0000
  N   N1        1.0  0.2418997618927678  0.3925775736141174  0.29753914532881376  1.0000
  N   N2        1.0  0.7581002384628236  0.607422426201516  0.7024608542470896  1.0000
  N   N3        1.0  0.4323545193111652  0.27546632849140296  0.3553238831671421  1.0000
  N   N4        1.0  0.5676454797408796  0.7245336714319514  0.6446761170427349  1.0000
  N   N5        1.0  0.5702838015428325  0.4093626096639623  0.25307990398256225  1.0000
  N   N6        1.0  0.4297161988982581  0.590637390251274  0.7469200962214199  1.0000
  N   N7        1.0  0.1367403848933943  0.7204267795775395  0.05376818230615337  1.0000
  N   N8        1.0  0.8632596154621971  0.279573220238094  0.94623181726975  1.0000
  O   O1        1.0  0.5312528784393188  0.4670571023219883  0.1929075045671079  1.0000
  O   O2        1.0  0.46874712191627255  0.5329428974936451  0.8070924950087954  1.0000
  O   O3        1.0  0.7320879776556402  0.39070523378754807  0.2714952661150664  1.0000
  O   O4        1.0  0.2679120227854504  0.6092947661276882  0.7285047340889156  1.0000
  O   O5        1.0  0.2033599236869798  0.6292076849506728  0.09692202670590161  1.0000
  O   O6        1.0  0.7966400770165284  0.3707923159101767  0.9030779735049709  1.0000
  O   O7        1.0  0.5007466458314749  0.9455797513859018  0.8599642474202824  1.0000
  O   O8        1.0  0.49925335313507074  0.05442024843784962  0.14003575216151576  1.0000
