data_image0
_chemical_formula_structural       H64C80N8O8S8Br8
_chemical_formula_sum              "H64 C80 N8 O8 S8 Br8"
_cell_length_a       13.189059185703684
_cell_length_b       9.367842813134011
_cell_length_c       16.586700882888653
_cell_angle_alpha    90.0
_cell_angle_beta     95.78980403742577
_cell_angle_gamma    90.0

_space_group_name_H-M_alt    "P 1"
_space_group_IT_number       1

loop_
  _space_group_symop_operation_xyz
  'x, y, z'

loop_
  _atom_site_type_symbol
  _atom_site_label
  _atom_site_symmetry_multiplicity
  _atom_site_fract_x
  _atom_site_fract_y
  _atom_site_fract_z
  _atom_site_occupancy
  H   H1        1.0  0.07865701649517295  0.3748747443836687  0.6216366700648955  1.0000
  H   H2        1.0  0.9213429832918764  0.8748747447501345  0.8783633301444363  1.0000
  H   H3        1.0  0.9213429836118224  0.6251252552817814  0.3783633297526234  1.0000
  H   H4        1.0  0.07865701612753609  0.12512525491531556  0.12163667027449415  1.0000
  H   H5        1.0  0.24378746544410768  0.7758914111805371  0.7868476376309192  1.0000
  H   H6        1.0  0.7562125351017024  0.2758914118815528  0.7131523625829679  1.0000
  H   H7        1.0  0.7562125346628877  0.22410858848491302  0.21315236218659958  1.0000
  H   H8        1.0  0.24378746507647078  0.7241085888513789  0.28684763784051787  1.0000
  H   H9        1.0  0.9767508893440051  0.5273591325714454  0.7068099808660149  1.0000
  H   H10       1.0  0.0232491104430443  0.027359133272461065  0.793190019343317  1.0000
  H   H11       1.0  0.0232491107629904  0.4726408670940047  0.29319001895150393  1.0000
  H   H12       1.0  0.9767508897351288  0.9726408674604706  0.20680998108016868  1.0000
  H   H13       1.0  0.9678510594862751  0.16318895080697496  0.4600889528243931  1.0000
  H   H14       1.0  0.03214894101184417  0.6631889511734408  0.03991104720727952  1.0000
  H   H15       1.0  0.03214894069189805  0.8368110488584751  0.5399110475990925  1.0000
  H   H16       1.0  0.9678510590951512  0.33681104849200927  0.9600889526102393  1.0000
  H   H17       1.0  0.05877491063611874  0.7281352405312207  0.7870064043365435  1.0000
  H   H18       1.0  0.9412250890797529  0.22813524123223647  0.7129935952668216  1.0000
  H   H19       1.0  0.9412250894708768  0.2718647591342294  0.2129935954809754  1.0000
  H   H20       1.0  0.05877491026848187  0.7718647595006952  0.28700640454614207  1.0000
  H   H21       1.0  0.6500594129673389  0.9138972419559457  0.34245339257454904  1.0000
  H   H22       1.0  0.3499405867720198  0.4138972415894798  0.15754660745256838  1.0000
  H   H23       1.0  0.3499405871396566  0.08610275770950442  0.6575466072429698  1.0000
  H   H24       1.0  0.6500594126473928  0.5861027580759703  0.8424533929663622  1.0000
  H   H25       1.0  0.9776237069826804  0.960912474681937  0.3638208921954219  1.0000
  H   H26       1.0  0.02237629351543884  0.46091247431547105  0.1361791078362507  1.0000
  H   H27       1.0  0.022376293124315036  0.03908752605099479  0.6361791076220968  1.0000
  H   H28       1.0  0.9776237066627343  0.5390875253499791  0.8638208925872349  1.0000
  H   H29       1.0  0.8193981748743626  0.8406245756983911  0.30363811203672947  1.0000
  H   H30       1.0  0.18060182562375657  0.3406245753319252  0.19636188799494317  1.0000
  H   H31       1.0  0.18060182530381044  0.15937542503454066  0.6963618883867562  1.0000
  H   H32       1.0  0.8193981744832388  0.6593754243335249  0.8036381118225757  1.0000
  H   H33       1.0  0.6769232476498748  0.4630835525888474  0.5844075177411284  1.0000
  H   H34       1.0  0.32307675289593524  0.9630835529553132  0.9155924824727586  1.0000
  H   H35       1.0  0.32307675245712064  0.5369164470766027  0.4155924820763903  1.0000
  H   H36       1.0  0.6769232472822378  0.03691644777761845  0.08440751795072712  1.0000
  H   H37       1.0  0.5540306502442011  0.5694860413883508  0.6373093990240394  1.0000
  H   H38       1.0  0.4459693494716705  0.06948604102188495  0.8626906005793257  1.0000
  H   H39       1.0  0.44596934986279435  0.43051395934458087  0.36269060079347937  1.0000
  H   H40       1.0  0.5540306506353249  0.9305139586435652  0.1373093992381932  1.0000
  H   H41       1.0  0.6186279863620046  0.9103591435205696  0.5619752113107889  1.0000
  H   H42       1.0  0.38137201335386717  0.4103591431541036  0.9380247882925761  1.0000
  H   H43       1.0  0.3813720129862303  0.08964085721236228  0.4380247885021748  1.0000
  H   H44       1.0  0.6186279867531282  0.5896408565113465  0.0619752115249427  1.0000
  H   H45       1.0  0.7079779388793874  0.9908900240069827  0.6351074825202695  1.0000
  H   H46       1.0  0.29202206090766186  0.4908900247079984  0.8648925176890624  1.0000
  H   H47       1.0  0.29202206129878566  0.009109975658467441  0.36489251790321625  1.0000
  H   H48       1.0  0.7079779391993336  0.5091099760249332  0.1351074821284564  1.0000
  H   H49       1.0  0.6047988895496716  0.8834096744660668  0.6659695572038296  1.0000
  H   H50       1.0  0.3952011101662  0.3834096740996009  0.8340304423995356  1.0000
  H   H51       1.0  0.3952011105573238  0.11659032519938328  0.3340304426136893  1.0000
  H   H52       1.0  0.6047988899407954  0.6165903255658491  0.16596955741798336  1.0000
  H   H53       1.0  0.8745114393971367  0.8414975248034438  0.643809275305821  1.0000
  H   H54       1.0  0.12548856031873493  0.34149752550445955  0.856190724297544  1.0000
  H   H55       1.0  0.12548856070985873  0.1585024748620063  0.3561907245116978  1.0000
  H   H56       1.0  0.8745114397882605  0.6585024752284722  0.1438092755199748  1.0000
  H   H57       1.0  0.8283135950038601  0.8528102477124382  0.5405521072848469  1.0000
  H   H58       1.0  0.17168640471201158  0.3528102473459723  0.9594478923185181  1.0000
  H   H59       1.0  0.17168640510313538  0.14718975195301187  0.4594478925326719  1.0000
  H   H60       1.0  0.828313595394984  0.6471897523194777  0.04055210749900074  1.0000
  H   H61       1.0  0.8662144789530026  0.6817617435943454  0.5836724799452031  1.0000
  H   H62       1.0  0.1337855208340468  0.18176174429536107  0.9163275202641289  1.0000
  H   H63       1.0  0.13378552122517057  0.3182382560711048  0.4163275204782826  1.0000
  H   H64       1.0  0.866214478514188  0.8182382564375706  0.08367247954883483  1.0000
  C   C1        1.0  0.6755570866780157  0.2778155208103159  0.5158024312358137  1.0000
  C   C2        1.0  0.3244429138677943  0.7778155211767818  0.9841975689780733  1.0000
  C   C3        1.0  0.32444291342897963  0.7221844788551341  0.4841975685817052  1.0000
  C   C4        1.0  0.6755570863103789  0.22218447955614995  0.01580243144541232  1.0000
  C   C5        1.0  0.5293057721907061  0.38262652688563253  0.5704163822377045  1.0000
  C   C6        1.0  0.47069422752516554  0.8826265272520983  0.9295836173656605  1.0000
  C   C7        1.0  0.47069422791628934  0.6173734727798176  0.4295836175798143  1.0000
  C   C8        1.0  0.52930577258183  0.1173734724133517  0.07041638245185833  1.0000
  C   C9        1.0  0.8035850142054974  0.15289450715290417  0.4557425533711359  1.0000
  C   C10       1.0  0.19641498546268354  0.6528945064518884  0.044257446050014713  1.0000
  C   C11       1.0  0.19641498514273747  0.8471054935800275  0.5442574464418278  1.0000
  C   C12       1.0  0.8035850146443119  0.3471054932135617  0.9557425537675042  1.0000
  C   C13       1.0  0.40313678683369614  0.5071978816017768  0.6402003130391588  1.0000
  C   C14       1.0  0.5968632128821755  0.007197882302792585  0.8597996865642062  1.0000
  C   C15       1.0  0.5968632132732993  0.49280211806367324  0.35979968677836005  1.0000
  C   C16       1.0  0.40313678722482  0.9928021184301391  0.14020031325331256  1.0000
  C   C17       1.0  0.7781097578124362  0.2654654416824089  0.5081488025648064  1.0000
  C   C18       1.0  0.2218902419746133  0.7654654420488747  0.9918511976445257  1.0000
  C   C19       1.0  0.22189024229455936  0.7345345579830412  0.49185119725271254  1.0000
  C   C20       1.0  0.7781097582035599  0.23453455868405695  0.008148802778960162  1.0000
  C   C21       1.0  0.26649083703548787  0.6018573168302098  0.704319262015285  1.0000
  C   C22       1.0  0.7335091627515616  0.10185731753122554  0.7956807381940468  1.0000
  C   C23       1.0  0.7335091631426852  0.3981426828352403  0.2956807384082006  1.0000
  C   C24       1.0  0.26649083735543394  0.8981426832017061  0.20431926162347203  1.0000
  C   C25       1.0  0.7141490505129663  0.08055141456281022  0.42287882565072765  1.0000
  C   C26       1.0  0.28585094922639237  0.5805514138617944  0.07712117437638982  1.0000
  C   C27       1.0  0.28585094959402924  0.9194485861701216  0.5771211741667912  1.0000
  C   C28       1.0  0.7141490501218424  0.4194485858036556  0.922878825436574  1.0000
  C   C29       1.0  0.11448911151234545  0.46154355770552447  0.6579525354155163  1.0000
  C   C30       1.0  0.8855108890334646  0.9615435580719904  0.8420474647983708  1.0000
  C   C31       1.0  0.8855108886658277  0.5384564419599256  0.3420474650079694  1.0000
  C   C32       1.0  0.11448911107353087  0.03845644266094139  0.1579525350191481  1.0000
  C   C33       1.0  0.2080712978300218  0.6878903327631887  0.7515037112707735  1.0000
  C   C34       1.0  0.79192870188585  0.18789033346420442  0.7484962883325916  1.0000
  C   C35       1.0  0.7919287022769737  0.31210966690226144  0.2484962885467454  1.0000
  C   C36       1.0  0.2080712982211456  0.8121096672687272  0.2515037114849272  1.0000
  C   C37       1.0  0.37276407495025987  0.6060526348755658  0.6942520492134382  1.0000
  C   C38       1.0  0.6272359248367895  0.10605263450909995  0.8057479509958937  1.0000
  C   C39       1.0  0.6272359251567357  0.3939473658573659  0.30574795060408055  1.0000
  C   C40       1.0  0.37276407458262306  0.8939473651563502  0.19425204942303687  1.0000
  C   C41       1.0  0.05788772517511896  0.5476160373664261  0.7053716266775951  1.0000
  C   C42       1.0  0.9421122745407527  0.04761603806744179  0.7946283729257699  1.0000
  C   C43       1.0  0.9421122749318764  0.45238396229902406  0.29462837313992374  1.0000
  C   C44       1.0  0.057887725566242755  0.9523839626654899  0.20537162689174887  1.0000
  C   C45       1.0  0.2183316380131119  0.4898993249081482  0.6571002570896921  1.0000
  C   C46       1.0  0.7816683617027598  0.9898993242071324  0.8428997425136728  1.0000
  C   C47       1.0  0.7816683620938836  0.5101006758247836  0.34289974272782664  1.0000
  C   C48       1.0  0.2183316384042357  0.010100675458317642  0.15710025730384597  1.0000
  C   C49       1.0  0.8990294977767627  0.1086799245363721  0.4344339883195366  1.0000
  C   C50       1.0  0.10097050196259584  0.608679924902838  0.06556601170758086  1.0000
  C   C51       1.0  0.10097050157147205  0.891320075129078  0.5655660114934271  1.0000
  C   C52       1.0  0.8990294981443996  0.39132007583009376  0.934433988109938  1.0000
  C   C53       1.0  0.10442753696014126  0.6605137942029519  0.7512336000195806  1.0000
  C   C54       1.0  0.895572463514491  0.16051379383648604  0.7487663995883397  1.0000
  C   C55       1.0  0.8955724631468542  0.33948620652997985  0.24876639979793833  1.0000
  C   C56       1.0  0.10442753659250437  0.839486205828964  0.2512336002291791  1.0000
  C   C57       1.0  0.7189396233406011  0.9684515582691403  0.3679041748712506  1.0000
  C   C58       1.0  0.281060377157518  0.46845155790267445  0.13209582516042206  1.0000
  C   C59       1.0  0.28106037676639417  0.03154844139630977  0.6320958249462683  1.0000
  C   C60       1.0  0.7189396230206552  0.5315484417627756  0.8679041752630636  1.0000
  C   C61       1.0  0.9037120243441437  0.995887898217079  0.3804262102771715  1.0000
  C   C62       1.0  0.09628797539521478  0.49588789785061327  0.11957378974994598  1.0000
  C   C63       1.0  0.09628797500409098  0.004112101448370975  0.6195737895357922  1.0000
  C   C64       1.0  0.9037120247117807  0.5041121018148368  0.8804262100675728  1.0000
  C   C65       1.0  0.8144167078223283  0.9273908522269011  0.3467279802845427  1.0000
  C   C66       1.0  0.18558329267579093  0.42739085186043513  0.15327201974712992  1.0000
  C   C67       1.0  0.18558329228466713  0.0726091474385491  0.6532720195329762  1.0000
  C   C68       1.0  0.8144167074312045  0.5726091478050149  0.846727980070389  1.0000
  C   C69       1.0  0.7237374902949849  0.7640363574381435  0.6176450997198016  1.0000
  C   C70       1.0  0.27626251017964737  0.26403635813915916  0.8823548998881187  1.0000
  C   C71       1.0  0.27626250981201045  0.23596364222730667  0.3823549000977173  1.0000
  C   C72       1.0  0.723737489927348  0.7359636425937726  0.1176450999294002  1.0000
  C   C73       1.0  0.6608774801193037  0.8956911198633674  0.6221582637936972  1.0000
  C   C74       1.0  0.3391225204265063  0.3956911194969015  0.8778417364201899  1.0000
  C   C75       1.0  0.3391225199876918  0.10430888086956434  0.37784173602382165  1.0000
  C   C76       1.0  0.660877479751667  0.6043088801685487  0.1221582640032958  1.0000
  C   C77       1.0  0.8297955075637369  0.7838280750937872  0.5943890028270997  1.0000
  C   C78       1.0  0.17020449215213485  0.28382807472732136  0.9056109967762653  1.0000
  C   C79       1.0  0.17020449254325865  0.21617192563914456  0.4056109969904191  1.0000
  C   C80       1.0  0.8297955071961001  0.7161719249381288  0.09438900303669837  1.0000
  N   N1        1.0  0.500322577790689  0.4936514758249761  0.6175347796660363  1.0000
  N   N2        1.0  0.49967742199636034  0.9936514751239602  0.8824652205432957  1.0000
  N   N3        1.0  0.49967742238748414  0.5063485249079556  0.3824652207574494  1.0000
  N   N4        1.0  0.5003225781106352  0.006348524541489787  0.1175347792742232  1.0000
  N   N5        1.0  0.6314802745504612  0.380729603511226  0.5603316060462361  1.0000
  N   N6        1.0  0.36851972523658805  0.8807296028102102  0.9396683941630958  1.0000
  N   N7        1.0  0.3685197256277119  0.6192703972217057  0.4396683943772496  1.0000
  N   N8        1.0  0.6314802748704073  0.11927039685523984  0.06033160565442304  1.0000
  O   O1        1.0  0.46831265077556716  0.29148943940130745  0.5403848785650076  1.0000
  O   O2        1.0  0.5316873497702429  0.7914894397677733  0.9596151216488795  1.0000
  O   O3        1.0  0.5316873493314284  0.7085105602641426  0.45961512125251136  1.0000
  O   O4        1.0  0.46831265040793024  0.20851055989767678  0.040384878774606135  1.0000
  O   O5        1.0  0.6894924279245137  0.6442621604984932  0.6318295926360795  1.0000
  O   O6        1.0  0.31050757262129636  0.1442621601320273  0.8681704075778076  1.0000
  O   O7        1.0  0.3105075722536595  0.3557378391669569  0.3681704077874063  1.0000
  O   O8        1.0  0.689492427485699  0.8557378395334228  0.13182959223971122  1.0000
  S   S1        1.0  0.3024137735798784  0.3980971408669868  0.6011677380922886  1.0000
  S   S2        1.0  0.6975862269659316  0.8980971401659709  0.8988322621215985  1.0000
  S   S3        1.0  0.697586226527117  0.6019028598659449  0.39883226172523023  1.0000
  S   S4        1.0  0.30241377321224155  0.10190285949947908  0.1011677383018872  1.0000
  S   S5        1.0  0.6042721153393904  0.14877760950962512  0.4589563439858139  1.0000
  S   S6        1.0  0.3957278843999682  0.648777609876091  0.04104365604130356  1.0000
  S   S7        1.0  0.39572788400884434  0.8512223901558249  0.5410436558271499  1.0000
  S   S8        1.0  0.6042721157070273  0.3512223908568407  0.9589563437762153  1.0000
  Br  Br1       1.0  0.8768514630954157  0.3900288169734613  0.5591310184353047  1.0000
  Br  Br2       1.0  0.1231485366916336  0.8900288162724456  0.9408689817740273  1.0000
  Br  Br3       1.0  0.12314853708275739  0.6099711837594705  0.4408689819881811  1.0000
  Br  Br4       1.0  0.8768514634153618  0.10997118339300456  0.05913101804349156  1.0000
  Br  Br5       1.0  0.464633230718469  0.7320032943321658  0.7518084476304965  1.0000
  Br  Br6       1.0  0.535366769827341  0.23200329396570002  0.7481915525833907  1.0000
  Br  Br7       1.0  0.5353667693885265  0.26799670533328424  0.24819155218702232  1.0000
  Br  Br8       1.0  0.46463323035083215  0.7679967056997501  0.2518084478400951  1.0000
