data_image0
_chemical_formula_structural       H48B2C26N8O2S2I2
_chemical_formula_sum              "H48 B2 C26 N8 O2 S2 I2"
_cell_length_a       8.500241159779591
_cell_length_b       8.588717243003149
_cell_length_c       12.560603846979687
_cell_angle_alpha    97.14383625091108
_cell_angle_beta     95.35275661262978
_cell_angle_gamma    97.04952391257271

_space_group_name_H-M_alt    "P 1"
_space_group_IT_number       1

loop_
  _space_group_symop_operation_xyz
  'x, y, z'

loop_
  _atom_site_type_symbol
  _atom_site_label
  _atom_site_symmetry_multiplicity
  _atom_site_fract_x
  _atom_site_fract_y
  _atom_site_fract_z
  _atom_site_occupancy
  H   H1        1.0  0.05621253831085307  0.8072009456929058  0.150741637046432  1.0000
  H   H2        1.0  0.9437874616670219  0.1927990536610632  0.8492583630972674  1.0000
  H   H3        1.0  0.15781969556891354  0.7306213370339548  0.282032096579614  1.0000
  H   H4        1.0  0.8421803044089614  0.26937866232001406  0.7179679035640855  1.0000
  H   H5        1.0  0.18084308310276118  0.9897730577688206  0.46219047949339925  1.0000
  H   H6        1.0  0.8191569168751138  0.010226941585148341  0.5378095206503003  1.0000
  H   H7        1.0  0.21627778225725963  0.20949927170375474  0.08020873115465595  1.0000
  H   H8        1.0  0.7837222177206152  0.7905007276502142  0.9197912689890436  1.0000
  H   H9        1.0  0.0560821038599633  0.05440472575972227  0.0776400906800339  1.0000
  H   H10       1.0  0.9439178962693228  0.9455952747676802  0.9223599094649652  1.0000
  H   H11       1.0  0.25280305804640146  0.008683269825629017  0.0763367300615295  1.0000
  H   H12       1.0  0.7471969420828847  0.9913167307017736  0.9236632700834697  1.0000
  H   H13       1.0  0.4595986815207086  0.4363954737559356  0.30784995331677045  1.0000
  H   H14       1.0  0.5404013186085775  0.5636045267714671  0.6921500468282288  1.0000
  H   H15       1.0  0.2722445937705978  0.5038473356361067  0.3268023666515698  1.0000
  H   H16       1.0  0.7277554062072773  0.4961526637178622  0.6731976334921297  1.0000
  H   H17       1.0  0.3116803707225206  0.4270188349845092  0.19578979796860807  1.0000
  H   H18       1.0  0.6883196292553544  0.5729811643694597  0.8042102021750914  1.0000
  H   H19       1.0  0.45412177060626485  0.32317397858862934  0.5106390396916387  1.0000
  H   H20       1.0  0.5458782295230213  0.6768260219387734  0.4893609604533605  1.0000
  H   H21       1.0  0.2902715618055446  0.43467280481136034  0.49429983301033503  1.0000
  H   H22       1.0  0.7097284381723304  0.5653271945426087  0.5057001671333645  1.0000
  H   H23       1.0  0.0201112229853161  0.32447161321903306  0.5712342698679825  1.0000
  H   H24       1.0  0.97988877714397  0.6755283873083696  0.4287657302770166  1.0000
  H   H25       1.0  0.5881709096461621  0.241427941272999  0.7013150503615987  1.0000
  H   H26       1.0  0.41182909035036314  0.7585720590935084  0.29868494897611364  1.0000
  H   H27       1.0  0.5271910875074243  0.1134112851008828  0.5792284314347771  1.0000
  H   H28       1.0  0.47280891247045076  0.8865887142530862  0.42077156870892246  1.0000
  H   H29       1.0  0.516087825840333  0.037901806613619166  0.7034271000418634  1.0000
  H   H30       1.0  0.48391217400478126  0.9620981925794546  0.2965728992945493  1.0000
  H   H31       1.0  0.36378508074667193  0.03025928561797291  0.8474737579240925  1.0000
  H   H32       1.0  0.6362149192498535  0.9697407147485347  0.15252624141361987  1.0000
  H   H33       1.0  0.16237182435651312  0.9410387263955359  0.8194855105938078  1.0000
  H   H34       1.0  0.8376281744458183  0.058961272964347985  0.18051448955094512  1.0000
  H   H35       1.0  0.2116874583302851  0.12855271306144622  0.9033390014211792  1.0000
  H   H36       1.0  0.78831254164759  0.8714472862925229  0.09666099872252039  1.0000
  H   H37       1.0  0.9339203265791606  0.3339971454718333  0.052392921967951776  1.0000
  H   H38       1.0  0.06607967355012553  0.6660028550555692  0.9476070781770474  1.0000
  H   H39       1.0  0.9103978719683515  0.3559771522145513  0.1964125933991936  1.0000
  H   H40       1.0  0.0896021281609346  0.6440228483128515  0.8035874067458056  1.0000
  H   H41       1.0  0.011069325610156352  0.5159353410862021  0.13780285441535506  1.0000
  H   H42       1.0  0.9889306745191297  0.4840646594412006  0.8621971457296441  1.0000
  H   H43       1.0  0.48403986917836433  0.32837378410114965  0.04253284207518213  1.0000
  H   H44       1.0  0.5159601309509217  0.671626216426253  0.957467158069817  1.0000
  H   H45       1.0  0.6054935527022512  0.24709255041818226  0.1424292830644879  1.0000
  H   H46       1.0  0.3945064474270349  0.7529074501092203  0.8575707170805112  1.0000
  H   H47       1.0  0.6507780374055934  0.23033305444225943  0.0029152758381516134  1.0000
  H   H48       1.0  0.34922196272369277  0.7696669460851431  0.9970847243068476  1.0000
  B   B1        1.0  0.07726464404219144  0.8241181806663406  0.24808273444000517  1.0000
  B   B2        1.0  0.9227353559543339  0.17588181970016684  0.7519172648977072  1.0000
  C   C1        1.0  0.19545759229854057  0.05635209563782995  0.3947722873886634  1.0000
  C   C2        1.0  0.8045424065037908  0.943647903722054  0.6052277127560896  1.0000
  C   C3        1.0  0.20104207883490158  0.11815274169010367  0.22914670170965992  1.0000
  C   C4        1.0  0.7989579212943846  0.881847258837299  0.7708532984353392  1.0000
  C   C5        1.0  0.2650838261933035  0.25194073923709526  0.29950944597618095  1.0000
  C   C6        1.0  0.7349161737845714  0.7480592601168736  0.7004905541675185  1.0000
  C   C7        1.0  0.1805355937638029  0.09683470495074249  0.10964803209280703  1.0000
  C   C8        1.0  0.8194644063654832  0.9031652955766601  0.8903519680521922  1.0000
  C   C9        1.0  0.3305966930641034  0.41340966109505467  0.2814790795886049  1.0000
  C   C10       1.0  0.6694033069137716  0.5865903382589143  0.7185209205550945  1.0000
  C   C11       1.0  0.32326831692283764  0.3158918684968424  0.5011154412447179  1.0000
  C   C12       1.0  0.6767316830736876  0.6841081318696648  0.4988845580929944  1.0000
  C   C13       1.0  0.10903733839914266  0.2723525726240395  0.6181753342729914  1.0000
  C   C14       1.0  0.8909626615787324  0.7276474267299294  0.381824665870708  1.0000
  C   C15       1.0  0.3343275469715833  0.17597843346855943  0.6668562076042592  1.0000
  C   C16       1.0  0.6656724530062916  0.8240215658854095  0.3331437925394404  1.0000
  C   C17       1.0  0.22464387392595267  0.13902630542310213  0.7364810829435494  1.0000
  C   C18       1.0  0.7753561262033335  0.8609736951043006  0.2635189172014498  1.0000
  C   C19       1.0  0.4999466537344011  0.14133467693550592  0.6626935274343418  1.0000
  C   C20       1.0  0.5000533462434739  0.858665322418463  0.3373064727093576  1.0000
  C   C21       1.0  0.24085928195188366  0.05492026937378913  0.8320214693132298  1.0000
  C   C22       1.0  0.7591407181774025  0.9450797311536135  0.1679785308317694  1.0000
  C   C23       1.0  0.9158510667458651  0.4150243129397821  0.12365705674052244  1.0000
  C   C24       1.0  0.08414893220787736  0.5849756875935355  0.87634294340553  1.0000
  C   C25       1.0  0.6042459929721995  0.3027483893540129  0.0681529938653462  1.0000
  C   C26       1.0  0.39575400715708675  0.6972516111733899  0.931847006279653  1.0000
  N   N1        1.0  0.15797263560857858  0.9981888061545978  0.2902837432692015  1.0000
  N   N2        1.0  0.8420273645207076  0.0018111943728046673  0.7097162568757976  1.0000
  N   N3        1.0  0.2598567990462332  0.20917166200793524  0.40241156493988345  1.0000
  N   N4        1.0  0.7401432009316417  0.7908283373460336  0.5975884352038161  1.0000
  N   N5        1.0  0.25899641669130086  0.26012795096408864  0.5936340473973241  1.0000
  N   N6        1.0  0.7410035832865741  0.7398720483898803  0.4063659527463755  1.0000
  N   N7        1.0  0.08533590255528797  0.19895468734527066  0.7040460441219611  1.0000
  N   N8        1.0  0.9146640975739981  0.8010453131821319  0.29595395602303803  1.0000
  O   O1        1.0  0.7336285921806963  0.5624427541130826  0.9950492072225097  1.0000
  O   O2        1.0  0.26637140779717866  0.4375572452408863  0.004950792921189899  1.0000
  S   S1        1.0  0.7293866432034724  0.4916507174879935  0.09945394926861383  1.0000
  S   S2        1.0  0.27061335679305304  0.5083492828785138  0.9005460500690986  1.0000
  I   I1        1.0  0.24520719596358873  0.7217281993736782  0.590558449774365  1.0000
  I   I2        1.0  0.7547928040142863  0.27827179998029083  0.40944155036933455  1.0000
