data_image0
_chemical_formula_structural       H36C44N8O20I4
_chemical_formula_sum              "H36 C44 N8 O20 I4"
_cell_length_a       13.441934386447851
_cell_length_b       9.843781330863484
_cell_length_c       9.52103130661426
_cell_angle_alpha    90.0
_cell_angle_beta     107.66164376671979
_cell_angle_gamma    90.0

_space_group_name_H-M_alt    "P 1"
_space_group_IT_number       1

loop_
  _space_group_symop_operation_xyz
  'x, y, z'

loop_
  _atom_site_type_symbol
  _atom_site_label
  _atom_site_symmetry_multiplicity
  _atom_site_fract_x
  _atom_site_fract_y
  _atom_site_fract_z
  _atom_site_occupancy
  H   H1        1.0  0.7045824598320405  0.7018478375112346  0.220686449616231  1.0000
  H   H2        1.0  0.29541753971694595  0.20184783806302894  0.27931355026369564  1.0000
  H   H3        1.0  0.29541754009818283  0.2981521624010466  0.7793135501537893  1.0000
  H   H4        1.0  0.7045824602132772  0.7981521628651221  0.7206864495063247  1.0000
  H   H5        1.0  0.8706200460629833  0.30401112838794553  0.05887922300183136  1.0000
  H   H6        1.0  0.12937995423178827  0.804011128852021  0.44112077688678636  1.0000
  H   H7        1.0  0.12937995386724002  0.6959888715243358  0.9411207767681888  1.0000
  H   H8        1.0  0.8706200456984351  0.1959888710602602  0.558879222883234  1.0000
  H   H9        1.0  0.7770461039072625  0.7253587061724851  0.012811987716783742  1.0000
  H   H10       1.0  0.222953895641724  0.22535870570840952  0.4871880121631429  1.0000
  H   H11       1.0  0.22295389602296087  0.2746412937397962  0.9871880120532367  1.0000
  H   H12       1.0  0.7770461045194993  0.7746412942038717  0.5128119887091048  1.0000
  H   H13       1.0  0.7963783488065637  0.279842458645753  0.26776156754902813  1.0000
  H   H14       1.0  0.203621651488208  0.7798424580939587  0.23223843233958957  1.0000
  H   H15       1.0  0.2036216511236597  0.7201575412665283  0.7322384322209922  1.0000
  H   H16       1.0  0.7963783484420153  0.22015754181832253  0.7677615674304308  1.0000
  H   H17       1.0  0.9127775861046636  0.7325189840810372  0.9334165822195826  1.0000
  H   H18       1.0  0.08722241369201122  0.2325189836169617  0.5665834185340678  1.0000
  H   H19       1.0  0.08722241382555955  0.267481015831244  0.06658341755043774  1.0000
  H   H20       1.0  0.912777586469212  0.7674810162953196  0.43341658233818  1.0000
  H   H21       1.0  0.9267014063305244  0.6584665660621114  0.7717662906525579  1.0000
  H   H22       1.0  0.07329859421193556  0.15846656661390573  0.7282337101097835  1.0000
  H   H23       1.0  0.07329859383069871  0.34153343385016977  0.22823371021968988  1.0000
  H   H24       1.0  0.9267014059492877  0.8415334332983756  0.2717662907624642  1.0000
  H   H25       1.0  0.5034877907644294  0.7789492556035262  0.3741962786260683  1.0000
  H   H26       1.0  0.4965122097613421  0.27894925513945074  0.12580372236477683  1.0000
  H   H27       1.0  0.4965122093967938  0.22105074532462476  0.6258037222461795  1.0000
  H   H28       1.0  0.5034877903998812  0.7210507447728305  0.874196278507471  1.0000
  H   H29       1.0  0.5693166392717739  0.21050493914397347  0.4182949448075474  1.0000
  H   H30       1.0  0.4306833602772126  0.7105049385921792  0.08170505507237918  1.0000
  H   H31       1.0  0.4306833606584495  0.7894950617841775  0.5817050549624728  1.0000
  H   H32       1.0  0.5693166396530107  0.28949506132010205  0.9182949446976412  1.0000
  H   H33       1.0  0.9358606707344045  0.42265747075824595  0.7288745375409915  1.0000
  H   H34       1.0  0.0641393298080556  0.9226574712223214  0.77112546322135  1.0000
  H   H35       1.0  0.06413932919581883  0.5773425291540354  0.27112546222902884  1.0000
  H   H36       1.0  0.9358606703531677  0.07734252970582961  0.22887453765089782  1.0000
  C   C1        1.0  0.8329526915664273  0.5169882272825324  0.026423163681531196  1.0000
  C   C2        1.0  0.16704730798255926  0.01698822681845686  0.47357683619839547  1.0000
  C   C3        1.0  0.16704730836379608  0.48301177262974887  0.9735768360884891  1.0000
  C   C4        1.0  0.832952691947664  0.9830117730938245  0.5264231635716249  1.0000
  C   C5        1.0  0.7430412618072206  0.6164307227116881  0.18651868070311306  1.0000
  C   C6        1.0  0.2569587377417659  0.11643072326348232  0.3134813191768136  1.0000
  C   C7        1.0  0.25695873812300274  0.3835692772005932  0.8134813190669072  1.0000
  C   C8        1.0  0.7430412624194574  0.8835692766487988  0.6865186816954342  1.0000
  C   C9        1.0  0.8774973659707987  0.5279805326134868  0.9014908171860505  1.0000
  C   C10       1.0  0.12250263359487623  0.027980532149411253  0.5985091824653724  1.0000
  C   C11       1.0  0.12250263395942451  0.47201946831466424  0.09850918258396989  1.0000
  C   C12       1.0  0.877497366335347  0.97201946776287  0.40149081730464786  1.0000
  C   C13       1.0  0.7850258084668569  0.6288264470678787  0.07070203560310213  1.0000
  C   C14       1.0  0.21497419108212962  0.12882644660380327  0.4292979642768245  1.0000
  C   C15       1.0  0.2149741914633665  0.3711735528444025  0.9292979641669182  1.0000
  C   C16       1.0  0.7850258088480936  0.871173553308478  0.5707020354931959  1.0000
  C   C17       1.0  0.7493160115274213  0.49095599928123024  0.25675893729386273  1.0000
  C   C18       1.0  0.25068398876735015  0.9909559997453057  0.24324106259475495  1.0000
  C   C19       1.0  0.25068398840280187  0.509044000631051  0.7432410624761576  1.0000
  C   C20       1.0  0.7493160111628732  0.009044000166975534  0.7567589371752654  1.0000
  C   C21       1.0  0.7940183739001085  0.3769899884269854  0.21240309069381644  1.0000
  C   C22       1.0  0.20598162639466294  0.8769899878751912  0.2875969091948013  1.0000
  C   C23       1.0  0.2059816260301147  0.6230100114852959  0.7875969090762039  1.0000
  C   C24       1.0  0.7940183735355604  0.1230100120370901  0.7124030905752191  1.0000
  C   C25       1.0  0.8357805184017064  0.39098307150859807  0.09631745066053377  1.0000
  C   C26       1.0  0.16421948114728002  0.8909830719726736  0.40368254921939284  1.0000
  C   C27       1.0  0.16421948152851684  0.6090169284036833  0.9036825491094864  1.0000
  C   C28       1.0  0.8357805187829433  0.10901692895547749  0.5963174505506275  1.0000
  C   C29       1.0  0.5401903424153222  0.994222980077261  0.3819406920633674  1.0000
  C   C30       1.0  0.45980965713366423  0.49422298062905534  0.11805930781655927  1.0000
  C   C31       1.0  0.459809657745901  0.0057770198350202105  0.6180593088088804  1.0000
  C   C32       1.0  0.540190342796559  0.5057770202990958  0.8819406919534609  1.0000
  C   C33       1.0  0.5019073592705485  0.8760000004229662  0.42871253444269836  1.0000
  C   C34       1.0  0.49809264102422307  0.3760000009747606  0.07128746544591938  1.0000
  C   C35       1.0  0.49809264065967485  0.12399999948931495  0.571287465327322  1.0000
  C   C36       1.0  0.5019073589060002  0.6239999989375207  0.928712534324101  1.0000
  C   C37       1.0  0.5386930742109822  0.11823855700154026  0.45275329332450825  1.0000
  C   C38       1.0  0.46130692608378926  0.6182385574656158  0.04724670656410943  1.0000
  C   C39       1.0  0.4613069257192409  0.881761442910741  0.5472467064455121  1.0000
  C   C40       1.0  0.5386930740774339  0.3817614424466655  0.9527532943081382  1.0000
  C   C41       1.0  0.9742071830567677  0.5126134104766188  0.5614057641771313  1.0000
  C   C42       1.0  0.02579281650890725  0.012613410012543272  0.9385942354742918  1.0000
  C   C43       1.0  0.025792816873455516  0.4873865894356625  0.4385942355928891  1.0000
  C   C44       1.0  0.974207183421316  0.987386589899738  0.06140576429572863  1.0000
  N   N1        1.0  0.9054842796725238  0.6494200343476378  0.8660219505696473  1.0000
  N   N2        1.0  0.09451572012415123  0.14942003388356231  0.6339780501840031  1.0000
  N   N3        1.0  0.09451572048869947  0.35057996556464344  0.13397805030260046  1.0000
  N   N4        1.0  0.905484279806072  0.8505799660287189  0.36602194958601725  1.0000
  N   N5        1.0  0.7074869492930276  0.4787132537397231  0.38143544013266717  1.0000
  N   N6        1.0  0.2925130510017439  0.9787132542037985  0.11856455975595054  1.0000
  N   N7        1.0  0.2925130506371957  0.5212867461725582  0.6185645596373532  1.0000
  N   N8        1.0  0.7074869489284793  0.02128674570848266  0.8814354400140698  1.0000
  O   O1        1.0  0.6744527329633854  0.5835019101847679  0.42591423185716043  1.0000
  O   O2        1.0  0.32554726733138617  0.08350191073656218  0.07408576803145733  1.0000
  O   O3        1.0  0.3255472669668379  0.4164980897275133  0.5740857679128598  1.0000
  O   O4        1.0  0.6744527325988372  0.9164980891757191  0.9259142317385629  1.0000
  O   O5        1.0  0.8871503097476504  0.42038892686749685  0.8325548163094262  1.0000
  O   O6        1.0  0.1128496898180246  0.9203889273315724  0.6674451833419968  1.0000
  O   O7        1.0  0.11284969018257288  0.5796110730447844  0.16744518346059414  1.0000
  O   O8        1.0  0.8871503101121988  0.07961107258070889  0.3325548164280236  1.0000
  O   O9        1.0  0.7077884717847835  0.36508908205143475  0.43821638734574847  1.0000
  O   O10       1.0  0.2922115277642029  0.8650890825155103  0.06178361253417816  1.0000
  O   O11       1.0  0.2922115281454397  0.6349109178608465  0.5617836124242718  1.0000
  O   O12       1.0  0.7077884721660204  0.134910917396771  0.9382163872358421  1.0000
  O   O13       1.0  0.9765255061361446  0.4068396437701751  0.6437073896997607  1.0000
  O   O14       1.0  0.023474494406315452  0.9068396442342506  0.8562926110625808  1.0000
  O   O15       1.0  0.023474494025078615  0.5931603561421062  0.3562926111724871  1.0000
  O   O16       1.0  0.9765255057549078  0.09316035567803065  0.14370738980966696  1.0000
  O   O17       1.0  0.9356396866188905  0.6248020210197511  0.5741466126353255  1.0000
  O   O18       1.0  0.06436031294678453  0.12480202055567557  0.9258533870160975  1.0000
  O   O19       1.0  0.06436031331133278  0.3751979799084  0.42585338713469484  1.0000
  O   O20       1.0  0.9356396869834388  0.8751979793566056  0.07414661275392288  1.0000
  I   I1        1.0  0.5978676331230574  0.9844410988302552  0.2000256917050303  1.0000
  I   I2        1.0  0.40213236717171424  0.48444109836617966  0.2999743081835874  1.0000
  I   I3        1.0  0.40213236680716596  0.01555890108202608  0.79997430806499  1.0000
  I   I4        1.0  0.5978676327585091  0.5155589015461016  0.7000256915864329  1.0000
