data_image0
_chemical_formula_structural       H44C50O12Cl12
_chemical_formula_sum              "H44 C50 O12 Cl12"
_cell_length_a       9.053653297323603
_cell_length_b       12.079633799714605
_cell_length_c       12.46763319925177
_cell_angle_alpha    74.9130219227557
_cell_angle_beta     89.6108194638914
_cell_angle_gamma    84.42979775557578

_space_group_name_H-M_alt    "P 1"
_space_group_IT_number       1

loop_
  _space_group_symop_operation_xyz
  'x, y, z'

loop_
  _atom_site_type_symbol
  _atom_site_label
  _atom_site_symmetry_multiplicity
  _atom_site_fract_x
  _atom_site_fract_y
  _atom_site_fract_z
  _atom_site_occupancy
  H   H1        1.0  0.3649678776212721  0.9280857678045432  0.006685354301583261  1.0000
  H   H2        1.0  0.6350321229927577  0.07191423158658249  0.9933146456097002  1.0000
  H   H3        1.0  0.18048544346742065  0.8969722167373265  0.003501561175406735  1.0000
  H   H4        1.0  0.8195145570391017  0.10302778348478574  0.996498438738744  1.0000
  H   H5        1.0  0.018738795074045328  0.8995741641369999  0.3769215174932813  1.0000
  H   H6        1.0  0.9812612054324771  0.10042583608511226  0.6230784824208695  1.0000
  H   H7        1.0  0.48504491467435895  0.8689842248110472  0.1720489103064691  1.0000
  H   H8        1.0  0.5149550847276163  0.1310157754112462  0.8279510896073999  1.0000
  H   H9        1.0  0.1576255344919086  0.7506791864005359  0.6502098612743401  1.0000
  H   H10       1.0  0.8423744649100666  0.2493208138217576  0.3497901386395289  1.0000
  H   H11       1.0  0.07085251685610433  0.8803764287889316  0.5584099667589221  1.0000
  H   H12       1.0  0.9291474836504182  0.11962357143318059  0.4415900331552286  1.0000
  H   H13       1.0  0.050651237765558556  0.7439266723536699  0.531386038403039  1.0000
  H   H14       1.0  0.949348762762297  0.2560733276408131  0.4686139623419702  1.0000
  H   H15       1.0  0.6205699458695826  0.7019751124790694  0.2950858454158538  1.0000
  H   H16       1.0  0.37943005353239256  0.29802488774322416  0.7049141544980152  1.0000
  H   H17       1.0  0.7269593783904941  0.7306014924095459  0.40451416708646115  1.0000
  H   H18       1.0  0.2730406211189886  0.269398506981761  0.5954858328245405  1.0000
  H   H19       1.0  0.6796185706723967  0.8430566108634805  0.2817166667563862  1.0000
  H   H20       1.0  0.3203814298554587  0.15694338913100275  0.7182833339886229  1.0000
  H   H21       1.0  0.9891821153842826  0.05062077222085561  0.08775028228192776  1.0000
  H   H22       1.0  0.010817885229747304  0.94937922717027  0.9122497176293556  1.0000
  H   H23       1.0  0.8978539998632904  0.009942244164821952  0.21536076223066644  1.0000
  H   H24       1.0  0.10214600064323198  0.9900577560572902  0.7846392376834843  1.0000
  H   H25       1.0  0.6450838714526397  0.862677015989706  0.9245509159837029  1.0000
  H   H26       1.0  0.35491612905388276  0.1373229842324061  0.07544908393044793  1.0000
  H   H27       1.0  0.003772531057252992  0.7468375647090308  0.2409908727886469  1.0000
  H   H28       1.0  0.9962274694492694  0.25316243551308143  0.7590091271255038  1.0000
  H   H29       1.0  0.5235882192468115  0.5860740679995651  0.937368905259422  1.0000
  H   H30       1.0  0.47641178017649666  0.4139259319950993  0.06263109548530547  1.0000
  H   H31       1.0  0.47754498370606274  0.7241065909908851  0.9637821910651229  1.0000
  H   H32       1.0  0.522455016907967  0.27589340840024057  0.03621780884616054  1.0000
  H   H33       1.0  0.6134305090853124  0.7073414992577706  0.8622330734658107  1.0000
  H   H34       1.0  0.3865694915287174  0.2926585001333551  0.1377669264454725  1.0000
  H   H35       1.0  0.9328614087193082  0.44871744061396884  0.337410354041414  1.0000
  H   H36       1.0  0.06713859178721403  0.5512825596081434  0.6625896458727367  1.0000
  H   H37       1.0  0.0572225190344877  0.5583587639624048  0.3005614307270589  1.0000
  H   H38       1.0  0.9427774814720348  0.4416412362597074  0.6994385691870919  1.0000
  H   H39       1.0  0.8818067700664093  0.5870106780300244  0.3616833881590946  1.0000
  H   H40       1.0  0.11819323044011332  0.4129893221920877  0.638316611755056  1.0000
  H   H41       1.0  0.5217020472601334  0.6451159772348043  0.5633188901755797  1.0000
  H   H42       1.0  0.4782979532463891  0.3548840229873079  0.43668110973857105  1.0000
  H   H43       1.0  0.6512315744131681  0.6106895923935507  0.6816179024821923  1.0000
  H   H44       1.0  0.348768424988807  0.38931040782874266  0.3183820974316767  1.0000
  C   C1        1.0  0.3492205869039912  0.026421540182558947  0.5337173225226568  1.0000
  C   C2        1.0  0.650779412497984  0.9735784600397344  0.46628267739121226  1.0000
  C   C3        1.0  0.3983320689350688  0.07435178843317217  0.41810487236015376  1.0000
  C   C4        1.0  0.6016679304669065  0.9256482117891212  0.5818951275537153  1.0000
  C   C5        1.0  0.5396924793353548  0.04997731925707703  0.38759140211722176  1.0000
  C   C6        1.0  0.46030752117116763  0.9500226809650351  0.612408597796929  1.0000
  C   C7        1.0  0.07014526087323614  0.4379671364456773  0.10610161561876613  1.0000
  C   C8        1.0  0.9298547385287391  0.5620328637766162  0.8938983842951029  1.0000
  C   C9        1.0  0.11319456274087634  0.5524316716103742  0.04396246464667964  1.0000
  C   C10       1.0  0.8868054366610989  0.44756832861191936  0.9560375352671894  1.0000
  C   C11       1.0  0.048970810664466735  0.6095291015968727  0.9443863571013159  1.0000
  C   C12       1.0  0.9510291898420556  0.39047089862523965  0.05561364281283468  1.0000
  C   C13       1.0  0.2520158146444003  0.9525332559411821  0.031964756791481856  1.0000
  C   C14       1.0  0.747984185862122  0.04746674428093022  0.9680352431226689  1.0000
  C   C15       1.0  0.2505657913343889  0.9217690247473549  0.15774433770617025  1.0000
  C   C16       1.0  0.7494342080675863  0.07823097547493849  0.8422556622076988  1.0000
  C   C17       1.0  0.11899797094190583  0.9311191148633535  0.21667452300882958  1.0000
  C   C18       1.0  0.8810020295646166  0.0688808853587586  0.7833254769053213  1.0000
  C   C19       1.0  0.12203815372202516  0.8922960616182661  0.3330392208451421  1.0000
  C   C20       1.0  0.8779618467844973  0.107703938603846  0.6669607790690087  1.0000
  C   C21       1.0  0.25279666413126123  0.8441170527150985  0.3920691043155839  1.0000
  C   C22       1.0  0.7472033365041018  0.155882946448398  0.6079308964265578  1.0000
  C   C23       1.0  0.3860903067084476  0.8383724964849167  0.3332179357534605  1.0000
  C   C24       1.0  0.6139096937980749  0.1616275037371954  0.6667820641606903  1.0000
  C   C25       1.0  0.38298647256893875  0.8762496942996181  0.2175484975857103  1.0000
  C   C26       1.0  0.6170135279375836  0.12375030592249425  0.7824515023284404  1.0000
  C   C27       1.0  0.12655439506390043  0.7940182617430523  0.5638249425304441  1.0000
  C   C28       1.0  0.8734456044455822  0.20598173764825445  0.4361750573805575  1.0000
  C   C29       1.0  0.6417267994620295  0.7664348558382706  0.33965905971462945  1.0000
  C   C30       1.0  0.3582731999612788  0.2335651441563936  0.660340941030098  1.0000
  C   C31       1.0  0.9723360405737885  0.976821745428772  0.15796464330259383  1.0000
  C   C32       1.0  0.027663959932733885  0.023178254793340243  0.8420353566115569  1.0000
  C   C33       1.0  0.8948589079918545  0.8890142628748455  0.11705655718737558  1.0000
  C   C34       1.0  0.1051410914101206  0.1109857373474478  0.8829434427264934  1.0000
  C   C35       1.0  0.7913768767379666  0.922055749553919  0.02819443034664383  1.0000
  C   C36       1.0  0.2086231237685558  0.07794425066819327  0.971805569567507  1.0000
  C   C37       1.0  0.7209141854143915  0.8364478624707836  0.9961486540277088  1.0000
  C   C38       1.0  0.2790858139875838  0.16355213775150984  0.0038513458861603477  1.0000
  C   C39       1.0  0.7469925346532769  0.7203836217612882  0.05278558719910955  1.0000
  C   C40       1.0  0.2530074658532456  0.27961637846082404  0.9472144127150413  1.0000
  C   C41       1.0  0.8489795566274971  0.687892069869089  0.1438540809138602  1.0000
  C   C42       1.0  0.15102044277447793  0.31210793035320444  0.8561459190000088  1.0000
  C   C43       1.0  0.9230067604092967  0.7717753582048894  0.17260248741329445  1.0000
  C   C44       1.0  0.07699323899267842  0.22822464201740392  0.8273975125005746  1.0000
  C   C45       1.0  0.5673344269161217  0.6657601446790901  0.9426194848202687  1.0000
  C   C46       1.0  0.4326655735904008  0.33423985554302227  0.05738051509388193  1.0000
  C   C47       1.0  0.9400376909410111  0.5413364373525726  0.3057114237280675  1.0000
  C   C48       1.0  0.05996230956551142  0.4586635628695397  0.6942885761860833  1.0000
  C   C49       1.0  0.570733417473993  0.5788896042959149  0.6348657150679321  1.0000
  C   C50       1.0  0.4292665820568227  0.4211103948677628  0.36513428567392797  1.0000
  O   O1        1.0  0.22141077292255043  0.048900497842543106  0.5620018478658946  1.0000
  O   O2        1.0  0.7785892264794246  0.9510995023797504  0.43799815204797443  1.0000
  O   O3        1.0  0.13264298765854016  0.38372013467595106  0.1942055598366858  1.0000
  O   O4        1.0  0.8673570117434349  0.6162798655463426  0.8057944400771831  1.0000
  O   O5        1.0  0.2630419111719229  0.7998748479212267  0.5047884226809427  1.0000
  O   O6        1.0  0.7369580882300523  0.20012515230106673  0.4952115772329263  1.0000
  O   O7        1.0  0.5114818914384289  0.7946955407770634  0.39672189671148783  1.0000
  O   O8        1.0  0.48851810798487916  0.20530445921760113  0.6032781040332397  1.0000
  O   O9        1.0  0.6797397778839691  0.6332080630176307  0.02812572026558994  1.0000
  O   O10       1.0  0.3202602226225533  0.3667919372044815  0.9718742796485607  1.0000
  O   O11       1.0  0.867812477336012  0.5730078275739043  0.19839076199229694  1.0000
  O   O12       1.0  0.1321875231705107  0.4269921726482077  0.8016092379218538  1.0000
  Cl  Cl1       1.0  0.2685696841335985  0.16235300589840584  0.33026440991650236  1.0000
  Cl  Cl2       1.0  0.7314303152683767  0.8376469943238877  0.6697355899973666  1.0000
  Cl  Cl3       1.0  0.6000241666328059  0.10351010139916805  0.256266173495288  1.0000
  Cl  Cl4       1.0  0.3999758338737165  0.8964898988229442  0.7437338264188627  1.0000
  Cl  Cl5       1.0  0.24519045556600236  0.6066464301711835  0.10598666883610837  1.0000
  Cl  Cl6       1.0  0.7548095449405201  0.39335357005092886  0.8940133310780423  1.0000
  Cl  Cl7       1.0  0.0983727821563516  0.7392661942850387  0.8701927755747342  1.0000
  Cl  Cl8       1.0  0.9016272172456236  0.2607338059372548  0.12980722433913483  1.0000
  Cl  Cl9       1.0  0.6670879784726484  0.46676627456148406  0.5849496971429048  1.0000
  Cl  Cl10      1.0  0.33291202092932676  0.5332337256608093  0.4150503027709643  1.0000
  Cl  Cl11      1.0  0.42541293456602153  0.5290802440741788  0.7252602837463664  1.0000
  Cl  Cl12      1.0  0.5745870660480084  0.47091975531694674  0.27473971616491705  1.0000
