data_image0
_chemical_formula_structural       H22C20N12O4F2
_chemical_formula_sum              "H22 C20 N12 O4 F2"
_cell_length_a       3.6418672450560057
_cell_length_b       9.576909370797368
_cell_length_c       16.246505984371936
_cell_angle_alpha    76.27549042332473
_cell_angle_beta     87.79045349885843
_cell_angle_gamma    81.70715937583752

_space_group_name_H-M_alt    "P 1"
_space_group_IT_number       1

loop_
  _space_group_symop_operation_xyz
  'x, y, z'

loop_
  _atom_site_type_symbol
  _atom_site_label
  _atom_site_symmetry_multiplicity
  _atom_site_fract_x
  _atom_site_fract_y
  _atom_site_fract_z
  _atom_site_occupancy
  H   H1        1.0  0.39120437132964564  0.3898053121278023  0.024341459819797847  1.0000
  H   H2        1.0  0.6087956284321983  0.6101946881795298  0.975658540127019  1.0000
  H   H3        1.0  0.4232102574429646  0.274618177821029  0.6966831265483612  1.0000
  H   H4        1.0  0.576789745447992  0.7253818213987155  0.3033168735312684  1.0000
  H   H5        1.0  0.22689210780231175  0.1158621058494247  0.7518715810989453  1.0000
  H   H6        1.0  0.773107891959532  0.8841378944579075  0.24812841884787165  1.0000
  H   H7        1.0  0.20011388222107615  0.15559443522380048  0.03698490664734653  1.0000
  H   H8        1.0  0.7998861179213655  0.8444055639981082  0.963015093449598  1.0000
  H   H9        1.0  0.6312374251675519  0.49457451575146266  0.7111604713192774  1.0000
  H   H10       1.0  0.3687625749748897  0.505425483470446  0.2888395287776672  1.0000
  H   H11       1.0  0.8324375557998632  0.371322629479967  0.5753075368414668  1.0000
  H   H12       1.0  0.16756244396198056  0.6286773708273651  0.42469246310534997  1.0000
  H   H13       1.0  0.40099900670330657  0.44457985419266144  0.5640207701576537  1.0000
  H   H14       1.0  0.5990009930585373  0.5554201461146708  0.4359792297891631  1.0000
  H   H15       1.0  0.9863996066933508  0.6079319295121207  0.7690686719724283  1.0000
  H   H16       1.0  0.013600393068493158  0.39206807079521144  0.2309313279743885  1.0000
  H   H17       1.0  0.7694300318735074  0.923806250277664  0.5316457548160222  1.0000
  H   H18       1.0  0.2305699682689341  0.07619374894424459  0.4683542452809224  1.0000
  H   H19       1.0  0.1467237994616093  0.8035846614701415  0.8292905424719033  1.0000
  H   H20       1.0  0.8532762006808323  0.19641533775176717  0.17070945762504136  1.0000
  H   H21       1.0  0.9251268766752775  0.11137975747596086  0.6039278780638639  1.0000
  H   H22       1.0  0.07487312308656642  0.8886202428313714  0.39607212188295293  1.0000
  C   C1        1.0  0.34576130540500344  0.25717274160923387  0.8230321372864529  1.0000
  C   C2        1.0  0.6542386943568403  0.7428272586980983  0.17696786266036402  1.0000
  C   C3        1.0  0.24968570748655788  0.1700430248881975  0.9030643295645587  1.0000
  C   C4        1.0  0.7503142926558837  0.8299569743337112  0.09693567053238586  1.0000
  C   C5        1.0  0.4748308316965965  0.4350591855988964  0.8918454595166838  1.0000
  C   C6        1.0  0.5251691680652473  0.5649408147084358  0.10815454043013309  1.0000
  C   C7        1.0  0.267166387892428  0.21824629889277225  0.9746136843649003  1.0000
  C   C8        1.0  0.7328336118694158  0.7817537014145599  0.025386315581916504  1.0000
  C   C9        1.0  0.8633300818012094  0.7505199409358722  0.6442512263175476  1.0000
  C   C10       1.0  0.13666992070914968  0.2494800593692957  0.3557487736119542  1.0000
  C   C11       1.0  0.7859311655929357  0.6393640792838637  0.5988006697507839  1.0000
  C   C12       1.0  0.21406883416890796  0.3606359210234685  0.401199330196033  1.0000
  C   C13       1.0  0.9658150341773445  0.7172666550975169  0.7293339385232935  1.0000
  C   C14       1.0  0.03418496558449942  0.2827333452098152  0.27066606142352334  1.0000
  C   C15       1.0  0.847302047558513  0.8946398794499092  0.5981378168451773  1.0000
  C   C16       1.0  0.15269795220333066  0.10536012085742312  0.4018621831016394  1.0000
  C   C17       1.0  0.05379209544665867  0.8283968536644617  0.7638319911234271  1.0000
  C   C18       1.0  0.9462079043151851  0.17160314664287046  0.23616800882338976  1.0000
  C   C19       1.0  0.9352462272103671  0.9981934484266713  0.638423503434421  1.0000
  C   C20       1.0  0.06475377293207446  0.0018065507952372108  0.3615764966625236  1.0000
  N   N1        1.0  0.4602060457306726  0.386576371171217  0.8202002359097431  1.0000
  N   N2        1.0  0.5397939540311713  0.6134236291361151  0.1797997640370737  1.0000
  N   N3        1.0  0.3756120830855867  0.35004375833864815  0.9689547133306016  1.0000
  N   N4        1.0  0.6243879170568549  0.6499562408832605  0.031045286766343053  1.0000
  N   N5        1.0  0.32684553926581983  0.21191247210717729  0.752449440310592  1.0000
  N   N6        1.0  0.6731544604960239  0.7880875282001549  0.24755055963622483  1.0000
  N   N7        1.0  0.6851855019686288  0.5149633218817187  0.6463914548502696  1.0000
  N   N8        1.0  0.3148145009223279  0.4850366773380258  0.35360854522936  1.0000
  N   N9        1.0  0.6050821265347454  0.40476732609958443  0.60886732828845  1.0000
  N   N10       1.0  0.3949178736076961  0.5952326731223244  0.39113267180849465  1.0000
  N   N11       1.0  0.0406889883579749  0.9663527773884699  0.7199030269007803  1.0000
  N   N12       1.0  0.9593110114038691  0.03364722291886216  0.28009697304603653  1.0000
  O   O1        1.0  0.578350004235724  0.5561945303226654  0.8902277938517179  1.0000
  O   O2        1.0  0.4216499955261197  0.44380546998466686  0.109772206095099  1.0000
  O   O3        1.0  0.8175807999682564  0.6624831562354548  0.5198505702962607  1.0000
  O   O4        1.0  0.18241919979358748  0.33751684407187726  0.4801494296505562  1.0000
  F   F1        1.0  0.1480538375546183  0.03688173328782259  0.9056856132144435  1.0000
  F   F2        1.0  0.8519461622072255  0.9631182670195096  0.09431438673237325  1.0000
