data_image0
_chemical_formula_structural       H56B44C28O8Cl44
_chemical_formula_sum              "H56 B44 C28 O8 Cl44"
_cell_length_a       9.170703616498972
_cell_length_b       18.109126850510656
_cell_length_c       15.463585338683119
_cell_angle_alpha    90.0
_cell_angle_beta     94.13840600438027
_cell_angle_gamma    90.0

_space_group_name_H-M_alt    "P 1"
_space_group_IT_number       1

loop_
  _space_group_symop_operation_xyz
  'x, y, z'

loop_
  _atom_site_type_symbol
  _atom_site_label
  _atom_site_symmetry_multiplicity
  _atom_site_fract_x
  _atom_site_fract_y
  _atom_site_fract_z
  _atom_site_occupancy
  H   H1        1.0  0.9362218926238066  0.9643566873301539  0.08397123070093461  1.0000
  H   H2        1.0  0.5637781069822148  0.4643566876203572  0.4160287693555134  1.0000
  H   H3        1.0  0.06377810711715687  0.03564331264164724  0.9160287690307831  1.0000
  H   H4        1.0  0.4362218928365649  0.535643312351444  0.5839712310245749  1.0000
  H   H5        1.0  0.004330181143439921  0.3356908077447465  0.8617622752904552  1.0000
  H   H6        1.0  0.4956698188102818  0.835690808006751  0.6382377247649029  1.0000
  H   H7        1.0  0.9956698186753398  0.6643091922270546  0.1382377250896332  1.0000
  H   H8        1.0  0.5043301820211881  0.16430919196505017  0.3617622749674578  1.0000
  H   H9        1.0  0.8767460312644308  0.28159765139953175  0.9115735109886651  1.0000
  H   H10       1.0  0.6232539678795773  0.7815976511093284  0.5884264892569607  1.0000
  H   H11       1.0  0.12325396855434896  0.7184023485722694  0.08842648939142335  1.0000
  H   H12       1.0  0.3767460319392023  0.2184023488624727  0.41157351112312773  1.0000
  H   H13       1.0  0.05544646971908838  0.24408647896104146  0.8946937562428549  1.0000
  H   H14       1.0  0.4445535302346333  0.7440864786708381  0.6053062438125032  1.0000
  H   H15       1.0  0.9445535311901979  0.7559135215629674  0.10530624413787658  1.0000
  H   H16       1.0  0.55544646950633  0.255913521300963  0.3946937559192144  1.0000
  H   H17       1.0  0.8860451414072696  0.350900981723523  0.08032840640461818  1.0000
  H   H18       1.0  0.6139548581987515  0.8509009819855274  0.4196715936518299  1.0000
  H   H19       1.0  0.1139548583336936  0.6490990182482781  0.9196715933270996  1.0000
  H   H20       1.0  0.3860451416200281  0.14909901798627367  0.5803284067282585  1.0000
  H   H21       1.0  0.8904352450986377  0.41341678104093055  0.9930033143362547  1.0000
  H   H22       1.0  0.6095647551358769  0.9134167813029349  0.5069966859100141  1.0000
  H   H23       1.0  0.10956475472014197  0.5865832189308706  0.006996686043833761  1.0000
  H   H24       1.0  0.3904352446050864  0.08658321866886617  0.4930033138217036  1.0000
  H   H25       1.0  0.029892441957106254  0.4164827991023388  0.08285799441118649  1.0000
  H   H26       1.0  0.4701075574459384  0.9164827988121357  0.4171420061027216  1.0000
  H   H27       1.0  0.9701075578616735  0.5835172008694623  0.9171420059689019  1.0000
  H   H28       1.0  0.5298924423728412  0.0835172011596656  0.5828579942773668  1.0000
  H   H29       1.0  0.44853601799527054  0.280839192965098  0.08905143829923526  1.0000
  H   H30       1.0  0.05146398242046448  0.7808391932271025  0.41094856156694504  1.0000
  H   H31       1.0  0.5514639828361995  0.7191608070067032  0.9109485614331253  1.0000
  H   H32       1.0  0.9485360173204987  0.21916080729690643  0.5890514381647727  1.0000
  H   H33       1.0  0.6205384173073556  0.24186013915278817  0.06231992711772472  1.0000
  H   H34       1.0  0.8794615833113559  0.741860138862585  0.4376800722909955  1.0000
  H   H35       1.0  0.37946158352411435  0.7581398613712207  0.9376800726146359  1.0000
  H   H36       1.0  0.12053841752011399  0.2581398611092163  0.5623199274413652  1.0000
  H   H37       1.0  0.49939132510710676  0.1887017788438341  0.11935081069939749  1.0000
  H   H38       1.0  0.0006086753086281352  0.6887017791058386  0.3806491891667828  1.0000
  H   H39       1.0  0.5006086758021794  0.811298221127967  0.8806491896813339  1.0000
  H   H40       1.0  0.9993913244323351  0.3112982214181703  0.6193508105649349  1.0000
  H   H41       1.0  0.45081371349802507  0.11781653183018244  0.8869034652519335  1.0000
  H   H42       1.0  0.049186286455696684  0.6178165320921869  0.6130965348034245  1.0000
  H   H43       1.0  0.5491862862429383  0.8821834681416187  0.11309653447978417  1.0000
  H   H44       1.0  0.9508137144535896  0.3821834678796143  0.3869034655773068  1.0000
  H   H45       1.0  0.586471978737051  0.11021952833378688  0.9777456640137747  1.0000
  H   H46       1.0  0.9135280214974637  0.6102195285957913  0.522254336232494  1.0000
  H   H47       1.0  0.41352802108172865  0.8897804716380143  0.02225433636631364  1.0000
  H   H48       1.0  0.08647197941182262  0.3897804719282176  0.47774566414823744  1.0000
  H   H49       1.0  0.5987326171392833  0.18160045910260242  0.901736986562999  1.0000
  H   H50       1.0  0.9012673820047246  0.6816004588123992  0.5982630136826268  1.0000
  H   H51       1.0  0.40126738267949624  0.8183995408691987  0.09826301381708942  1.0000
  H   H52       1.0  0.09873261781405501  0.31839954115940206  0.40173698669746166  1.0000
  H   H53       1.0  0.23586461867029715  0.26233122056163843  0.9996765844526524  1.0000
  H   H54       1.0  0.2641353812834246  0.7623312208236429  0.5003234156027058  1.0000
  H   H55       1.0  0.7641353811484825  0.7376687794101627  0.00032341592743607815  1.0000
  H   H56       1.0  0.7358646184575387  0.23766877914815826  0.49967658412901195  1.0000
  B   B1        1.0  0.8258791230885693  0.043058485725832325  0.18703849619938562  1.0000
  B   B2        1.0  0.674120876517452  0.5430584859878367  0.31296150385706245  1.0000
  B   B3        1.0  0.17412087673021046  0.9569415142459688  0.8129615041807028  1.0000
  B   B4        1.0  0.32587912322351126  0.4569415139839644  0.6870384958746553  1.0000
  B   B5        1.0  0.8750562580454458  0.04300235822678776  0.30072214011540166  1.0000
  B   B6        1.0  0.6249437415605755  0.5430023584887922  0.19927785994104638  1.0000
  B   B7        1.0  0.12494374169551754  0.9569976417450133  0.6992778596163159  1.0000
  B   B8        1.0  0.3750562582582042  0.456997641483009  0.8007221404390421  1.0000
  B   B9        1.0  0.04621452048999248  0.09027791751063353  0.3176189128509062  1.0000
  B   B10       1.0  0.4537854800035588  0.5902779172204302  0.1823810876636449  1.0000
  B   B11       1.0  0.9537854793287872  0.9097220824611677  0.6823810875291821  1.0000
  B   B12       1.0  0.5462145198152208  0.4097220827513709  0.8176189127164436  1.0000
  B   B13       1.0  0.9656129394380096  0.09032819160764084  0.13438707103735084  1.0000
  B   B14       1.0  0.5343870612585181  0.5903281913174375  0.36561292901974013  1.0000
  B   B15       1.0  0.0343870613934602  0.9096718083641604  0.8656129286950097  1.0000
  B   B16       1.0  0.4656129384824453  0.4096718086543636  0.6343870707119776  1.0000
  B   B17       1.0  0.9054286322822734  0.9627005865005794  0.2381905065888855  1.0000
  B   B18       1.0  0.5945713673237478  0.46270058623857496  0.26180949346756255  1.0000
  B   B19       1.0  0.0945713674586899  0.03729941347122171  0.7618094931428322  1.0000
  B   B20       1.0  0.40542863249503186  0.5372994137332261  0.738190506912526  1.0000
  B   B21       1.0  0.0938122598000035  0.9600283693142144  0.2164667027332291  1.0000
  B   B22       1.0  0.40618773952522486  0.46002836905220995  0.28353329713230824  1.0000
  B   B23       1.0  0.9061877399409598  0.039971631209794536  0.7835332969984885  1.0000
  B   B24       1.0  0.5938122602935547  0.5399716309195912  0.7164667032477802  1.0000
  B   B25       1.0  0.041699028095307476  0.9913864847378737  0.319137630569125  1.0000
  B   B26       1.0  0.45830097232042744  0.4913864850280769  0.18086236929705535  1.0000
  B   B27       1.0  0.9583009728139787  0.008613515233927551  0.6808623698116063  1.0000
  B   B28       1.0  0.5416990274205359  0.5086135149437243  0.8191376304346623  1.0000
  B   B29       1.0  0.9121186838338147  0.12229125005756704  0.23625333438370147  1.0000
  B   B30       1.0  0.5878813168627132  0.6222912503195716  0.2637466656733895  1.0000
  B   B31       1.0  0.08788131707547164  0.8777087499142341  0.7637466659970299  1.0000
  B   B32       1.0  0.4121186828782501  0.37770874965222967  0.7362533340583282  1.0000
  B   B33       1.0  0.10209957735384953  0.11974559336298708  0.2148325929445882  1.0000
  B   B34       1.0  0.39790042306188544  0.6197455930727838  0.2851674069215921  1.0000
  B   B35       1.0  0.8979004235554366  0.880254406608814  0.7851674074361432  1.0000
  B   B36       1.0  0.602099576679078  0.38025440689901735  0.7148325928101257  1.0000
  B   B37       1.0  0.13120505158585755  0.03908603025661839  0.1522774471989136  1.0000
  B   B38       1.0  0.3687949488298774  0.5390860299664151  0.34772255266726665  1.0000
  B   B39       1.0  0.8687949481551057  0.9609139697151827  0.847722552532804  1.0000
  B   B40       1.0  0.6312050520015925  0.4609139700053861  0.6522774470650939  1.0000
  B   B41       1.0  0.18183610383155185  0.038660973871319344  0.2656024832766269  1.0000
  B   B42       1.0  0.3181638954936765  0.5386609741333238  0.23439751658891048  1.0000
  B   B43       1.0  0.8181638959872278  0.9613390261004818  0.7343975171034616  1.0000
  B   B44       1.0  0.6818361042472868  0.4613390258384774  0.7656024831428071  1.0000
  C   C1        1.0  0.9644293853619396  0.996006608098357  0.1428083445160319  1.0000
  C   C2        1.0  0.5355706142440817  0.4960066078363525  0.3571916555404161  1.0000
  C   C3        1.0  0.03557061445684005  0.003993391873444232  0.8571916558640564  1.0000
  C   C4        1.0  0.4644293854968817  0.5039933921354486  0.6428083441913014  1.0000
  C   C5        1.0  0.04833481088197955  0.3258105743421651  0.996022790888528  1.0000
  C   C6        1.0  0.45166518907174213  0.8258105746041695  0.5039772091668301  1.0000
  C   C7        1.0  0.9516651889368003  0.6741894256296361  0.003977209491560469  1.0000
  C   C8        1.0  0.5483348117597278  0.17418942536763163  0.49602279056553056  1.0000
  C   C9        1.0  0.9942745101457988  0.29309106859839196  0.9119958305690922  1.0000
  C   C10       1.0  0.5057254900887158  0.7930910683081887  0.5880041696771766  1.0000
  C   C11       1.0  0.005725489595164565  0.7069089313734093  0.08800416916262553  1.0000
  C   C12       1.0  0.4942745097300638  0.20690893166361252  0.4119958307029118  1.0000
  C   C13       1.0  0.9601402360944433  0.3812511352420789  0.03966150294504724  1.0000
  C   C14       1.0  0.5398597646020846  0.8812511355040833  0.4603384971120438  1.0000
  C   C15       1.0  0.03985976481484301  0.6187488647297223  0.9603384974356842  1.0000
  C   C16       1.0  0.4601402351388787  0.11874886446771785  0.5396615026196738  1.0000
  C   C17       1.0  0.5041130385415556  0.2310643138424979  0.0683985786121676  1.0000
  C   C18       1.0  0.9958869621549721  0.7310643135522946  0.4316014214449234  1.0000
  C   C19       1.0  0.4958869622899142  0.7689356861293033  0.9316014211201931  1.0000
  C   C20       1.0  0.00411303766380747  0.26893568641950655  0.568398578935165  1.0000
  C   C21       1.0  0.4348395117302169  0.19900565056223993  0.9868910712644309  1.0000
  C   C22       1.0  0.06516048814568856  0.6990056508242444  0.5131089281425564  1.0000
  C   C23       1.0  0.5651604880107465  0.8009943494095612  0.013108928467286812  1.0000
  C   C24       1.0  0.9348395126857812  0.3009943496997646  0.48689107158980416  1.0000
  C   C25       1.0  0.5203225667840619  0.14786390818862105  0.9353826169314016  1.0000
  C   C26       1.0  0.9796774334504526  0.6478639084506256  0.5646173833148672  1.0000
  C   C27       1.0  0.47967743295690146  0.8521360917831802  0.06461738280031612  1.0000
  C   C28       1.0  0.020322567458833506  0.3521360915211757  0.43538261706586423  1.0000
  O   O1        1.0  0.17008340615843562  0.30783271308538007  0.03333122539465891  1.0000
  O   O2        1.0  0.32991659425729936  0.8078327127951768  0.4666687744715214  1.0000
  O   O3        1.0  0.8299165947508506  0.692167286886421  0.9666687749860724  1.0000
  O   O4        1.0  0.670083405483664  0.19216728717662435  0.5333312252601962  1.0000
  O   O5        1.0  0.30548678782239386  0.21366653798059237  0.9603957752362976  1.0000
  O   O6        1.0  0.19451321213132788  0.7136665382425968  0.5396042248190605  1.0000
  O   O7        1.0  0.6945132119185695  0.7863334619912088  0.039604224495420046  1.0000
  O   O8        1.0  0.8054867876874517  0.2863334617292043  0.46039577556102795  1.0000
  Cl  Cl1       1.0  0.09346598774003312  0.14261908877882595  0.41319093728077166  1.0000
  Cl  Cl2       1.0  0.4065340115851953  0.6426190884886227  0.08680906258476564  1.0000
  Cl  Cl3       1.0  0.9065340120787465  0.8573809111929752  0.5868090630993167  1.0000
  Cl  Cl4       1.0  0.593465988155768  0.3573809114831785  0.913190937146952  1.0000
  Cl  Cl5       1.0  0.9240828675525105  0.13549169820580334  0.03378303785678871  1.0000
  Cl  Cl6       1.0  0.5759171331440175  0.6354916984678078  0.4662169622003023  1.0000
  Cl  Cl7       1.0  0.07591713327895949  0.8645083017659978  0.9662169618755719  1.0000
  Cl  Cl8       1.0  0.42408286667476225  0.3645083020562011  0.5337830381797862  1.0000
  Cl  Cl9       1.0  0.7391390472071291  0.04337995953558897  0.3769779272747292  1.0000
  Cl  Cl10      1.0  0.7608609523988922  0.5433799597975933  0.12302207278171885  1.0000
  Cl  Cl11      1.0  0.26086095261165054  0.9566200404362123  0.6230220731053592  1.0000
  Cl  Cl12      1.0  0.23913904734207117  0.4566200401742077  0.8769779269499989  1.0000
  Cl  Cl13      1.0  0.8159823455220311  0.20674885547529434  0.245461366309391  1.0000
  Cl  Cl14      1.0  0.6840176551744968  0.706748855185091  0.25453863374769997  1.0000
  Cl  Cl15      1.0  0.1840176553094388  0.7932511450487145  0.7545386334229697  1.0000
  Cl  Cl16      1.0  0.315982344644283  0.2932511447867101  0.7454613666323885  1.0000
  Cl  Cl17      1.0  0.20439918289906397  0.2019925952364098  0.2033036154476629  1.0000
  Cl  Cl18      1.0  0.2956008165039807  0.7019925954984142  0.2966963850662452  1.0000
  Cl  Cl19      1.0  0.7956008169197156  0.7980074047353913  0.7966963849324256  1.0000
  Cl  Cl20      1.0  0.704399183314799  0.29800740447338686  0.7033036153138432  1.0000
  Cl  Cl21      1.0  0.25445198518686674  0.03372093171807343  0.06924285252620743  1.0000
  Cl  Cl22      1.0  0.24554801421617797  0.5337209314278701  0.43075714798770076  1.0000
  Cl  Cl23      1.0  0.745548014631913  0.9662790682537278  0.930757147853881  1.0000
  Cl  Cl24      1.0  0.7544519856026016  0.46627906854393103  0.5692428523923877  1.0000
  Cl  Cl25      1.0  0.3687372799405983  0.034764202890447335  0.30461497258939885  1.0000
  Cl  Cl26      1.0  0.1312627204751367  0.534764202600244  0.19538502727678148  1.0000
  Cl  Cl27      1.0  0.6312627198003651  0.9652357970813539  0.6953850271423188  1.0000
  Cl  Cl28      1.0  0.8687372803563331  0.46523579737155707  0.8046149724555791  1.0000
  Cl  Cl29      1.0  0.08206360327107433  0.9393636540527247  0.4144553736312027  1.0000
  Cl  Cl30      1.0  0.41793639714466063  0.43936365379072023  0.08554462623497752  1.0000
  Cl  Cl31      1.0  0.9179363964698891  0.060636345919076476  0.5855446261005148  1.0000
  Cl  Cl32      1.0  0.5820636037646256  0.5606363461810808  0.9144553741457538  1.0000
  Cl  Cl33      1.0  0.1797379018022949  0.8741404365143985  0.20084728828200465  1.0000
  Cl  Cl34      1.0  0.3202620975229335  0.37414043625239407  0.29915271158353274  1.0000
  Cl  Cl35      1.0  0.8202620979386684  0.12585956345740262  0.799152711449713  1.0000
  Cl  Cl36      1.0  0.6797379022958462  0.6258595637194071  0.7008472887965558  1.0000
  Cl  Cl37      1.0  0.8038125486074127  0.880030148419365  0.2418739109807433  1.0000
  Cl  Cl38      1.0  0.6961874509986086  0.38003014815736047  0.2581260890757048  1.0000
  Cl  Cl39      1.0  0.196187451211367  0.1199698515524362  0.7581260893993452  1.0000
  Cl  Cl40      1.0  0.30381254874235475  0.6199698518144406  0.7418739106560129  1.0000
  Cl  Cl41      1.0  0.644047432499113  0.03996688719310565  0.14054458461960267  1.0000
  Cl  Cl42      1.0  0.8559525681195984  0.5399668874551101  0.35945541478911747  1.0000
  Cl  Cl43      1.0  0.3559525683323568  0.9600331127786954  0.8594554151127579  1.0000
  Cl  Cl44      1.0  0.14404743162136494  0.4600331125166911  0.6405445849426001  1.0000
