data_image0
_chemical_formula_structural       H18C26N4O6F6
_chemical_formula_sum              "H18 C26 N4 O6 F6"
_cell_length_a       3.8071371012045447
_cell_length_b       7.410869970459338
_cell_length_c       21.533575789668898
_cell_angle_alpha    98.02256782498564
_cell_angle_beta     93.80074920335223
_cell_angle_gamma    98.00672205399987

_space_group_name_H-M_alt    "P 1"
_space_group_IT_number       1

loop_
  _space_group_symop_operation_xyz
  'x, y, z'

loop_
  _atom_site_type_symbol
  _atom_site_label
  _atom_site_symmetry_multiplicity
  _atom_site_fract_x
  _atom_site_fract_y
  _atom_site_fract_z
  _atom_site_occupancy
  H   H1        1.0  0.43870152344316127  0.9843585310271108  0.41194952859271755  1.0000
  H   H2        1.0  0.5612984774763407  0.015641469388634924  0.58805047163265  1.0000
  H   H3        1.0  0.2026340702871346  0.4343040133205316  0.4606655063056322  1.0000
  H   H4        1.0  0.7973659276102403  0.5656959857103308  0.5393344938192352  1.0000
  H   H5        1.0  0.9385011076563295  0.26221642117287774  0.21443442870526047  1.0000
  H   H6        1.0  0.06149889287530391  0.7377835778645168  0.7855655714480922  1.0000
  H   H7        1.0  0.23678809701655298  0.03983407298317138  0.030976028257987353  1.0000
  H   H8        1.0  0.7632119008808219  0.9601659260476909  0.9690239718668799  1.0000
  H   H9        1.0  0.08501294981250003  0.009677796960352078  0.254063700792747  1.0000
  H   H10       1.0  0.9149870511070017  0.9903222034553936  0.7459362994326206  1.0000
  H   H11       1.0  0.2837375293548613  0.7400001676795677  0.18977318455916486  1.0000
  H   H12       1.0  0.7162624685425137  0.2599998313512946  0.8102268155657025  1.0000
  H   H13       1.0  0.5575639759998477  0.46597307947842653  0.05201293845914285  1.0000
  H   H14       1.0  0.44243602453178565  0.5340269195589679  0.9479870616942099  1.0000
  H   H15       1.0  0.022661967488099094  0.2924383682502668  0.10195301632841132  1.0000
  H   H16       1.0  0.9773380307971444  0.7075616321589467  0.8980469838684709  1.0000
  H   H17       1.0  0.5329895415238726  0.570747132419302  0.13079532983556164  1.0000
  H   H18       1.0  0.46701045939562924  0.42925286799644363  0.8692046703898058  1.0000
  C   C1        1.0  0.5353480376300521  0.5668380380292196  0.3265628910375463  1.0000
  C   C2        1.0  0.4646519632751867  0.4331619623902436  0.6734371087234511  1.0000
  C   C3        1.0  0.4275509518449143  0.8359005032201019  0.40074032364487255  1.0000
  C   C4        1.0  0.5724490490745876  0.16409949719564385  0.5992596765804948  1.0000
  C   C5        1.0  0.5329362204840054  0.7559514979966445  0.34402558219451135  1.0000
  C   C6        1.0  0.4670637774133696  0.24404850103421774  0.6559744179303559  1.0000
  C   C7        1.0  0.3004787726041465  0.5269161532941605  0.4285818252708578  1.0000
  C   C8        1.0  0.6995212279132236  0.4730838457469513  0.5714181744181247  1.0000
  C   C9        1.0  0.652705072728815  0.48456828912554967  0.26446809945866484  1.0000
  C   C10       1.0  0.34729492780281834  0.5154317099118447  0.7355319006946879  1.0000
  C   C11       1.0  0.4169718641559848  0.4575103909881929  0.3715411007123019  1.0000
  C   C12       1.0  0.5830281367635171  0.5424896094275528  0.6284588995130657  1.0000
  C   C13       1.0  0.3107825287373969  0.7164361370286774  0.4417439385959968  1.0000
  C   C14       1.0  0.689217469159978  0.28356386200218486  0.5582560615288706  1.0000
  C   C15       1.0  0.3660678145821829  0.7110895219818218  0.05932508919411202  1.0000
  C   C16       1.0  0.6339321833009289  0.2889104770527579  0.9406749104663852  1.0000
  C   C17       1.0  0.22946310740901438  0.8582545858295496  0.1677059213673843  1.0000
  C   C18       1.0  0.7705368935104875  0.14174541458619602  0.8322940788579833  1.0000
  C   C19       1.0  0.26686253754937506  0.867408838840016  0.10398125229095502  1.0000
  C   C20       1.0  0.7331374607358685  0.13259116156919765  0.8960187479059271  1.0000
  C   C21       1.0  0.19895045814371234  0.02624648482257895  0.07972018804480982  1.0000
  C   C22       1.0  0.8010495427615264  0.9737535155968842  0.9202798117161876  1.0000
  C   C23       1.0  0.12027572526314123  0.006083626061193326  0.2042951444889024  1.0000
  C   C24       1.0  0.8797242730078391  0.9939163743517377  0.7957048552436097  1.0000
  C   C25       1.0  0.08564643327310144  0.16793427320694762  0.11870268915322749  1.0000
  C   C26       1.0  0.9143535676464004  0.8320657272087981  0.8812973110721399  1.0000
  N   N1        1.0  0.047328919673815494  0.15460721444026787  0.1794904520940517  1.0000
  N   N2        1.0  0.9526710812456864  0.8453927859754778  0.8205095481313159  1.0000
  N   N3        1.0  0.490378561449481  0.5732215633042966  0.08329954256901749  1.0000
  N   N4        1.0  0.5096214394557578  0.4267784371151664  0.91670045719198  1.0000
  O   O1        1.0  0.8164078352241364  0.34630292524806905  0.2675971004222227  1.0000
  O   O2        1.0  0.1835921656811025  0.6536970751713942  0.7324028993387748  1.0000
  O   O3        1.0  0.5842293657608711  0.552193642675023  0.2154586418130322  1.0000
  O   O4        1.0  0.41577063251010926  0.44780635773790806  0.7845413579194799  1.0000
  O   O5        1.0  0.3255742421676348  0.7161760980198675  0.0012317768651181377  1.0000
  O   O6        1.0  0.6744257587376039  0.2838239023995959  0.9987682228958793  1.0000
  F   F1        1.0  0.6487491589481507  0.8739004294289698  0.3039905433164845  1.0000
  F   F2        1.0  0.3512508419713513  0.12609957098677574  0.696009456908883  1.0000
  F   F3        1.0  0.405625930750302  0.2724998326630185  0.35977073915555946  1.0000
  F   F4        1.0  0.5943740697670682  0.7275001663780933  0.6402292605334231  1.0000
  F   F5        1.0  0.2001387637454309  0.7883288186234688  0.4977760903442755  1.0000
  F   F6        1.0  0.799861237159808  0.21167118179599434  0.502223909416722  1.0000
