data_image0
_chemical_formula_structural       H24C26N4O8F4
_chemical_formula_sum              "H24 C26 N4 O8 F4"
_cell_length_a       3.6748350689634663
_cell_length_b       15.58348059120204
_cell_length_c       10.87039918615139
_cell_angle_alpha    90.0
_cell_angle_beta     93.19894041478715
_cell_angle_gamma    90.0

_space_group_name_H-M_alt    "P 1"
_space_group_IT_number       1

loop_
  _space_group_symop_operation_xyz
  'x, y, z'

loop_
  _atom_site_type_symbol
  _atom_site_label
  _atom_site_symmetry_multiplicity
  _atom_site_fract_x
  _atom_site_fract_y
  _atom_site_fract_z
  _atom_site_occupancy
  H   H1        1.0  0.49540691379580115  0.1838463591771323  0.5599364915714854  1.0000
  H   H2        1.0  0.49540691320115926  0.8161536407457322  0.05993649244552672  1.0000
  H   H3        1.0  0.49684559574816095  0.9259420792134462  0.37393373069381286  1.0000
  H   H4        1.0  0.49684559360659963  0.07405792070941832  0.8739337306844418  1.0000
  H   H5        1.0  0.27405106102688215  0.14342276854772917  0.11380298458937588  1.0000
  H   H6        1.0  0.274051061610757  0.8565772313751352  0.6138029846350538  1.0000
  H   H7        1.0  0.542005660551095  0.021334812082206  0.23798009956865143  1.0000
  H   H8        1.0  0.5420056611349698  0.9786651878406584  0.7379800996143292  1.0000
  H   H9        1.0  0.7792073238990027  0.8940167928765236  0.4985875084991525  1.0000
  H   H10       1.0  0.7792073217682085  0.10598320704634084  0.9985875075700624  1.0000
  H   H11       1.0  0.23179672122861736  0.29920050291154815  0.41966640498735897  1.0000
  H   H12       1.0  0.23179672181249217  0.7007994970113163  0.9196664050330369  1.0000
  H   H13       1.0  0.5753883331802747  0.7218837642953209  0.2788864696960775  1.0000
  H   H14       1.0  0.5753883337641498  0.2781162356275436  0.7788864697417551  1.0000
  H   H15       1.0  0.45189027656793446  0.45558416352815373  0.16951588095020795  1.0000
  H   H16       1.0  0.4518902771518093  0.5444158370364159  0.6695158809958858  1.0000
  H   H17       1.0  0.1176856179111481  0.7144439436903235  0.6808729955189452  1.0000
  H   H18       1.0  0.11768561732727327  0.28555605687424607  0.18087299547326738  1.0000
  H   H19       1.0  0.9727737832591005  0.5183131735384006  0.5222077818959465  1.0000
  H   H20       1.0  0.9727737826752255  0.4816868263844639  0.022207781850268705  1.0000
  H   H21       1.0  0.07375167564696786  0.8838396730045011  0.20267080360026307  1.0000
  H   H22       1.0  0.07375167623084267  0.11616032691836341  0.7026708036459408  1.0000
  H   H23       1.0  0.08015070136435874  0.8246266233523615  0.3214646075231457  1.0000
  H   H24       1.0  0.08015070194823357  0.17537337657050298  0.8214646075688234  1.0000
  C   C1        1.0  0.5365201860149809  0.09315040959588537  0.41046246347382787  1.0000
  C   C2        1.0  0.5365201838734196  0.9068495903269791  0.9104624634644569  1.0000
  C   C3        1.0  0.4726296582190222  0.08090818303529874  0.2835744643289059  1.0000
  C   C4        1.0  0.47262965881366414  0.9190918168875657  0.7835744634548645  1.0000
  C   C5        1.0  0.45227567747616154  0.17273190121080448  0.4612840344692005  1.0000
  C   C6        1.0  0.4522756780600364  0.82726809871206  0.9612840345148784  1.0000
  C   C7        1.0  0.3039897989239371  0.23653451540736165  0.38459400531310517  1.0000
  C   C8        1.0  0.3039897995078119  0.7634654845155028  0.8845940053587831  1.0000
  C   C9        1.0  0.7007731057135833  0.024071988141839404  0.4922479358647194  1.0000
  C   C10       1.0  0.7007731062974583  0.9759280117810251  0.9922479359103973  1.0000
  C   C11       1.0  0.32798568487549945  0.14832778380107084  0.21305379660129856  1.0000
  C   C12       1.0  0.32798568545937434  0.8516722167634988  0.7130537966469764  1.0000
  C   C13       1.0  0.5477161158299364  0.5041274832039315  0.23550868436106048  1.0000
  C   C14       1.0  0.5477161164138111  0.4958725173606381  0.7355086844067383  1.0000
  C   C15       1.0  0.621319382944225  0.6540924295022178  0.2982970545393904  1.0000
  C   C16       1.0  0.6213193808026637  0.3459075710623518  0.7982970545300194  1.0000
  C   C17       1.0  0.791729690411824  0.6271569706653147  0.4101259477237407  1.0000
  C   C18       1.0  0.7917296909956987  0.3728430292575497  0.9101259477694186  1.0000
  C   C19       1.0  0.8406192346427317  0.5397548705998801  0.4359819559356713  1.0000
  C   C20       1.0  0.8406192325011704  0.4602451293229844  0.9359819559263003  1.0000
  C   C21       1.0  0.923314091587134  0.6932338559910065  0.5020625642052918  1.0000
  C   C22       1.0  0.9233140937286952  0.3067661439318579  0.0020625642146628776  1.0000
  C   C23       1.0  0.5026569842305028  0.5916083031671978  0.21466783625258704  1.0000
  C   C24       1.0  0.5026569848143776  0.4083916973973718  0.7146678362982648  1.0000
  C   C25       1.0  0.7201791421516006  0.4808909509105982  0.347495519228875  1.0000
  C   C26       1.0  0.7201791427462426  0.5191090490122663  0.8474955183548336  1.0000
  N   N1        1.0  0.24494745776837556  0.22416327402314598  0.26263523985663284  1.0000
  N   N2        1.0  0.2449474583522504  0.7758367258997184  0.7626352399023107  1.0000
  N   N3        1.0  0.6563848090058063  0.943583725981063  0.4512780524773435  1.0000
  N   N4        1.0  0.656384809589681  0.056416273941801424  0.9512780525230213  1.0000
  O   O1        1.0  0.8728734610085365  0.04243434745722568  0.5914454820701358  1.0000
  O   O2        1.0  0.8728734604246615  0.9575656524656389  0.09144548202445792  1.0000
  O   O3        1.0  0.9339518934669516  0.770870008127843  0.4735308023966706  1.0000
  O   O4        1.0  0.9339518940508266  0.22912999179502147  0.9735308024423485  1.0000
  O   O5        1.0  0.022020383774068123  0.6625008937880448  0.6107244891556906  1.0000
  O   O6        1.0  0.022020383190193296  0.33749910613481965  0.11072448911001276  1.0000
  O   O7        1.0  0.23637049574524716  0.854848983321539  0.2650354270104922  1.0000
  O   O8        1.0  0.236370496329122  0.14515101660132543  0.7650354270561701  1.0000
  F   F1        1.0  0.3296605319056269  0.6164876513802593  0.10594432842453862  1.0000
  F   F2        1.0  0.32966053248950167  0.3835123485426052  0.6059443284702164  1.0000
  F   F3        1.0  0.7723885458617332  0.39562624305385946  0.3709539582904906  1.0000
  F   F4        1.0  0.772388546445608  0.604373756869005  0.8709539583361685  1.0000
