data_image0
_chemical_formula_structural       H10B2C26F8Br2
_chemical_formula_sum              "H10 B2 C26 F8 Br2"
_cell_length_a       6.977917036150751
_cell_length_b       8.534816598488884
_cell_length_c       9.922868221801624
_cell_angle_alpha    73.27734975826178
_cell_angle_beta     74.28129545965042
_cell_angle_gamma    78.25922616215142

_space_group_name_H-M_alt    "P 1"
_space_group_IT_number       1

loop_
  _space_group_symop_operation_xyz
  'x, y, z'

loop_
  _atom_site_type_symbol
  _atom_site_label
  _atom_site_symmetry_multiplicity
  _atom_site_fract_x
  _atom_site_fract_y
  _atom_site_fract_z
  _atom_site_occupancy
  H   H1        1.0  0.6590560131090274  0.24790559467025153  0.41083936430609963  1.0000
  H   H2        1.0  0.3409439874189723  0.7520944049484648  0.5891606357658111  1.0000
  H   H3        1.0  0.6922029445526983  0.0942555654270109  0.6589277446870208  1.0000
  H   H4        1.0  0.3077970559753017  0.9057444341917054  0.34107225538488994  1.0000
  H   H5        1.0  0.6325006933885396  0.08750896909422684  0.9177307887352336  1.0000
  H   H6        1.0  0.36749930570624817  0.9124910305190304  0.08226921134056314  1.0000
  H   H7        1.0  0.46443778286525217  0.33721929687472646  0.0072887482807245975  1.0000
  H   H8        1.0  0.5355622162295356  0.6627807027385306  0.9927112517950722  1.0000
  H   H9        1.0  0.36153863141560966  0.5967706373313526  0.8375662973520073  1.0000
  H   H10       1.0  0.6384613691123902  0.4032293622873636  0.16243370271990343  1.0000
  B   B1        1.0  0.9281668324064156  0.6080523629594117  0.6007814009442936  1.0000
  B   B2        1.0  0.07183316812158422  0.39194763665930465  0.3992185991276172  1.0000
  C   C1        1.0  0.0038044441157760026  0.4230564595792924  0.6601211946547838  1.0000
  C   C2        1.0  0.9961955546752924  0.5769435412300679  0.33987880542312265  1.0000
  C   C3        1.0  0.09079770694099444  0.32202256924295874  0.5590429340945288  1.0000
  C   C4        1.0  0.9092022921537933  0.6779774303702983  0.440957065981268  1.0000
  C   C5        1.0  0.18377100197248022  0.16265191138521143  0.6110104985274779  1.0000
  C   C6        1.0  0.8162289982518  0.837348089429608  0.3889895015465424  1.0000
  C   C7        1.0  0.1901283505112019  0.09678892925613085  0.756042864796918  1.0000
  C   C8        1.0  0.8098716482798664  0.9032110715532294  0.24395713528098836  1.0000
  C   C9        1.0  0.09851925547099195  0.191602738574573  0.8539981751266059  1.0000
  C   C10       1.0  0.9014807450878896  0.8083972625473574  0.1460018238670764  1.0000
  C   C11       1.0  0.005152863695686201  0.3514911636396054  0.8059630530899737  1.0000
  C   C12       1.0  0.9948471368323135  0.6485088359791109  0.19403694698193708  1.0000
  C   C13       1.0  0.5906172015898573  0.3580458424482412  0.4499162217925435  1.0000
  C   C14       1.0  0.40938279893814244  0.6419541571704751  0.5500837782793673  1.0000
  C   C15       1.0  0.5629224697095858  0.35122627569110737  0.596693192552162  1.0000
  C   C16       1.0  0.43707753081841394  0.6487737239276089  0.4033068075197487  1.0000
  C   C17       1.0  0.6214017404386957  0.2042522406346033  0.6976741691257116  1.0000
  C   C18       1.0  0.3785982600893041  0.795747758984113  0.30232583094619914  1.0000
  C   C19       1.0  0.5879890520109744  0.2006748690732755  0.8415802416175086  1.0000
  C   C20       1.0  0.4120109470838133  0.7993251305399817  0.15841975845828823  1.0000
  C   C21       1.0  0.49348650189875914  0.3432853064500397  0.8925492958112916  1.0000
  C   C22       1.0  0.5065134986292407  0.6567146931686766  0.10745070426061924  1.0000
  C   C23       1.0  0.4365902370577037  0.4878776281274691  0.7983280854266411  1.0000
  C   C24       1.0  0.5634097620679657  0.5121223729890024  0.20167191357092706  1.0000
  C   C25       1.0  0.4696770067310693  0.4971473220334046  0.6482090511634884  1.0000
  C   C26       1.0  0.5303229937969305  0.5028526775853116  0.35179094890842233  1.0000
  F   F1        1.0  0.2842868165802753  0.06199254011901157  0.52398173367247  1.0000
  F   F2        1.0  0.7157131825145125  0.9380074594942455  0.4760182664033267  1.0000
  F   F3        1.0  0.2847965687136119  0.943705027679951  0.8001247804370718  1.0000
  F   F4        1.0  0.7152034315106683  0.05629497313486855  0.1998752196369485  1.0000
  F   F5        1.0  0.10292194455153393  0.13044934072443232  0.9941593344326396  1.0000
  F   F6        1.0  0.897078054543254  0.8695506588888249  0.005840665643157029  1.0000
  F   F7        1.0  0.9155527590524309  0.43051990649664273  0.911395526326655  1.0000
  F   F8        1.0  0.08444724004235675  0.5694800931166143  0.0886044737491418  1.0000
  Br  Br1       1.0  0.88736413127155  0.7588798698365562  0.7223752158965993  1.0000
  Br  Br2       1.0  0.1126358692564498  0.24112012978215994  0.27762478417531156  1.0000
