data_image0
_chemical_formula_structural       H78C66N10O40
_chemical_formula_sum              "H78 C66 N10 O40"
_cell_length_a       7.511408137125887
_cell_length_b       16.019018197672523
_cell_length_c       16.426626244607085
_cell_angle_alpha    72.80412480717605
_cell_angle_beta     86.03681079708407
_cell_angle_gamma    89.37376819499224

_space_group_name_H-M_alt    "P 1"
_space_group_IT_number       1

loop_
  _space_group_symop_operation_xyz
  'x, y, z'

loop_
  _atom_site_type_symbol
  _atom_site_label
  _atom_site_symmetry_multiplicity
  _atom_site_fract_x
  _atom_site_fract_y
  _atom_site_fract_z
  _atom_site_occupancy
  H   H1        1.0  0.23281949460566223  0.8253239574125865  0.8718483339555348  1.0000
  H   H2        1.0  0.767180505302987  0.17467604285662447  0.12815166614361523  1.0000
  H   H3        1.0  0.6513583343895317  0.49794495001290856  0.276513219772182  1.0000
  H   H4        1.0  0.3486416655021271  0.5020550496028076  0.7234867805139623  1.0000
  H   H5        1.0  0.5168652949773366  0.5634573106819549  0.318874070394475  1.0000
  H   H6        1.0  0.4831347049080857  0.43654268893586007  0.6811259292825035  1.0000
  H   H7        1.0  0.7243121097617553  0.5992223107082012  0.2758412217328329  1.0000
  H   H8        1.0  0.27568789014689393  0.40077768956100973  0.7241587783663173  1.0000
  H   H9        1.0  0.4550164670367169  0.5592474550881797  0.0027710588499618534  1.0000
  H   H10       1.0  0.5449835328719324  0.44075254518103135  0.9972289412491883  1.0000
  H   H11       1.0  0.562877509743618  0.4844413862039494  0.14756356073418236  1.0000
  H   H12       1.0  0.4371224901650311  0.5155586140652616  0.8524364393649677  1.0000
  H   H13       1.0  0.523043111669579  0.729342639895695  0.2071440688846295  1.0000
  H   H14       1.0  0.4769568882328338  0.27065736037561505  0.7928559306053545  1.0000
  H   H15       1.0  0.4102113527301075  0.8005325137207685  0.06478278697824014  1.0000
  H   H16       1.0  0.5897886471723052  0.1994674865505415  0.9352172125117442  1.0000
  H   H17       1.0  0.05821287440416446  0.8222344896438161  0.6560909436979766  1.0000
  H   H18       1.0  0.9417871255044848  0.17776551062539497  0.3439090564011734  1.0000
  H   H19       1.0  0.2325562501021733  0.9746437133566848  0.3985313309457202  1.0000
  H   H20       1.0  0.7674437497894855  0.025356286259031257  0.6014686693404242  1.0000
  H   H21       1.0  0.3200423747800419  0.06998425630490757  0.6137044745506708  1.0000
  H   H22       1.0  0.6799576251286075  0.9300157439643034  0.38629552554847923  1.0000
  H   H23       1.0  0.7999887252444565  0.9987347988383888  0.15048403278974967  1.0000
  H   H24       1.0  0.20001127466419277  0.0012652014308221868  0.8495159673094004  1.0000
  H   H25       1.0  0.8833321544594163  0.7845742735046929  0.01529155482548522  1.0000
  H   H26       1.0  0.11666784542600593  0.2154257261131222  0.9847084448514934  1.0000
  H   H27       1.0  0.6882779542451313  0.8973929996735172  0.7654408289075709  1.0000
  H   H28       1.0  0.3117220456465276  0.10260699994219896  0.2345591713785735  1.0000
  H   H29       1.0  0.6980851263671402  0.04975172308517151  0.9429182410808606  1.0000
  H   H30       1.0  0.3019148735182821  0.9502482765326434  0.05708175859611774  1.0000
  H   H31       1.0  0.6564978956944715  0.29057420098549025  0.3748227185029596  1.0000
  H   H32       1.0  0.34350210419718746  0.7094257986302259  0.6251772817831848  1.0000
  H   H33       1.0  0.6092875908311135  0.2690572803305731  0.2769131654901669  1.0000
  H   H34       1.0  0.3907124090775356  0.7309427199386378  0.7230868346089832  1.0000
  H   H35       1.0  0.36073544103819166  0.3764901760327491  0.25887537201945227  1.0000
  H   H36       1.0  0.6392645588534672  0.623509823582967  0.7411246282666921  1.0000
  H   H37       1.0  0.3290313281102376  0.2864082699606088  0.35309728585953976  1.0000
  H   H38       1.0  0.6709686717984116  0.7135917303086021  0.6469027142396103  1.0000
  H   H39       1.0  0.13509693696736025  0.38059033591387426  0.4138196629235776  1.0000
  H   H40       1.0  0.8649030629242985  0.6194096637018418  0.5861803373625667  1.0000
  H   H41       1.0  0.17874978759365062  0.4699453913143871  0.3193819526755447  1.0000
  H   H42       1.0  0.8212502122980082  0.530054608301329  0.6806180476105997  1.0000
  H   H43       1.0  0.08997946025216964  0.5139563406629309  0.4500737014334219  1.0000
  H   H44       1.0  0.9100205396564797  0.48604365960628  0.5499262986657283  1.0000
  H   H45       1.0  0.28347628194053964  0.4610833489441493  0.499436348040902  1.0000
  H   H46       1.0  0.7165237179511192  0.5389166506715668  0.5005636522452425  1.0000
  H   H47       1.0  0.41034162359388054  0.5922353831297691  0.5079032355937725  1.0000
  H   H48       1.0  0.5896583776322215  0.40776461648415374  0.49209676464784463  1.0000
  H   H49       1.0  0.2100259518795696  0.6462897697430897  0.4686029637643785  1.0000
  H   H50       1.0  0.7899740480290797  0.3537102305261212  0.5313970363347716  1.0000
  H   H51       1.0  0.3861610350912207  0.7448158912217789  0.34318142406682467  1.0000
  H   H52       1.0  0.6138389648004381  0.2551841083939371  0.6568185762193196  1.0000
  H   H53       1.0  0.45220635930175057  0.7522817011958413  0.44296574411833783  1.0000
  H   H54       1.0  0.5477936406068987  0.2477182990733696  0.5570342559808121  1.0000
  H   H55       1.0  0.7596149615813865  0.7974648991692065  0.383570102639241  1.0000
  H   H56       1.0  0.24038503832726274  0.2025351011000044  0.6164298974599091  1.0000
  H   H57       1.0  0.6740562774222837  0.8015128757862785  0.2836593114419234  1.0000
  H   H58       1.0  0.3259437224693752  0.1984871238294376  0.716340688844221  1.0000
  H   H59       1.0  0.998971882781565  0.7859791490735584  0.2795053864683836  1.0000
  H   H60       1.0  0.0010281184383003766  0.21402085054246367  0.7204946131640676  1.0000
  H   H61       1.0  0.9830491637042434  0.6880016438807172  0.3676809618966625  1.0000
  H   H62       1.0  0.01695083753884902  0.31199835638670054  0.6323190381579603  1.0000
  H   H63       1.0  0.15565658470389346  0.6401920466647227  0.25576660442564064  1.0000
  H   H64       1.0  0.8443434152047559  0.3598079536044882  0.7442333956735094  1.0000
  H   H65       1.0  0.1009853376195355  0.7302563081174244  0.1664757354790597  1.0000
  H   H66       1.0  0.8990146622828772  0.26974369215388566  0.8335242640109245  1.0000
  H   H67       1.0  0.9225978492852152  0.6284955266613618  0.11216940569283433  1.0000
  H   H68       1.0  0.07740215060020708  0.37150447295645334  0.8878305939841441  1.0000
  H   H69       1.0  0.1520744778617304  0.599659464021046  0.12116517045204393  1.0000
  H   H70       1.0  0.8479255220406824  0.40034053625026406  0.8788348290379401  1.0000
  H   H71       1.0  0.10165600448768508  0.4369413015966368  0.15396183910381755  1.0000
  H   H72       1.0  0.8983439954209642  0.5630586986725742  0.8460381609953326  1.0000
  H   H73       1.0  0.8872825993052644  0.47447969377872473  0.11896479457372852  1.0000
  H   H74       1.0  0.11271740058639441  0.5255203058369915  0.8810352057124158  1.0000
  H   H75       1.0  0.8786093852148148  0.3201970363530871  0.21005249448370206  1.0000
  H   H76       1.0  0.12139061467684405  0.6798029632626289  0.7899475058024421  1.0000
  H   H77       1.0  0.9604621730024134  0.35227238304653957  0.2966711745125128  1.0000
  H   H78       1.0  0.03953782690623588  0.6477276172226715  0.7033288255866375  1.0000
  C   C1        1.0  0.4273397989974742  0.6836589936681827  0.02511860603464769  1.0000
  C   C2        1.0  0.5726602008941846  0.3163410059475334  0.9748813942514967  1.0000
  C   C3        1.0  0.4711688162636456  0.5951244256763767  0.04863651900667805  1.0000
  C   C4        1.0  0.5288311836280133  0.40487557393933926  0.9513634812794663  1.0000
  C   C5        1.0  0.529853529319586  0.553699655539856  0.1291461963811671  1.0000
  C   C6        1.0  0.4701464705890633  0.4463003447293549  0.8708538037179828  1.0000
  C   C7        1.0  0.5469319473791382  0.6028706504090469  0.1856778974829993  1.0000
  C   C8        1.0  0.45306805252951105  0.3971293498601641  0.8143221026161509  1.0000
  C   C9        1.0  0.5067493074502348  0.6916498719894633  0.16284919276024667  1.0000
  C   C10       1.0  0.49325069245841435  0.3083501282797479  0.8371508073389033  1.0000
  C   C11       1.0  0.44536855846619244  0.7317838022026917  0.08272994532918139  1.0000
  C   C12       1.0  0.5546314414424567  0.26821619806651914  0.9172700547699688  1.0000
  C   C13       1.0  0.3571135165135767  0.7232576335446025  0.9394297433868262  1.0000
  C   C14       1.0  0.6428864833780821  0.2767423660711135  0.06057025689931817  1.0000
  C   C15       1.0  0.18509946885238995  0.9456741177514448  0.6440076208926996  1.0000
  C   C16       1.0  0.8149005310392688  0.05432588186427116  0.3559923793934448  1.0000
  C   C17       1.0  0.1197194072043797  0.8811119895615169  0.612206889437409  1.0000
  C   C18       1.0  0.8802805926872792  0.1188880100541992  0.38779311084873525  1.0000
  C   C19       1.0  0.13616915399571955  0.8937145059989717  0.5242663365024248  1.0000
  C   C20       1.0  0.8638308459129298  0.10628549427023919  0.4757336635967253  1.0000
  C   C21       1.0  0.21734410547888527  0.9673333980330937  0.46661515144828025  1.0000
  C   C22       1.0  0.7826558944127735  0.03266660158262224  0.5333848488378642  1.0000
  C   C23       1.0  0.282310668205434  0.029684524836419646  0.5009828347006298  1.0000
  C   C24       1.0  0.7176893317032154  0.9703154754327914  0.49901716539852026  1.0000
  C   C25       1.0  0.2671583552860119  0.02063921719366127  0.5882426263583221  1.0000
  C   C26       1.0  0.7328416446226373  0.9793607830755497  0.4117573737408279  1.0000
  C   C27       1.0  0.17516237362624457  0.9331279516458889  0.7390856575052314  1.0000
  C   C28       1.0  0.8248376262761681  0.06687204862542098  0.26091434198475283  1.0000
  C   C29       1.0  0.7938108890164441  0.9177657375335212  0.9882071063248706  1.0000
  C   C30       1.0  0.2061891108922051  0.08223426273568983  0.011792893774279395  1.0000
  C   C31       1.0  0.8267674801457104  0.8395907593724464  0.9687093649145113  1.0000
  C   C32       1.0  0.17323251976293882  0.16040924089676456  0.031290635184638746  1.0000
  C   C33       1.0  0.7868182694031958  0.8337405642608156  0.8891475435749964  1.0000
  C   C34       1.0  0.21318173050545358  0.16625943600839532  0.11085245652415363  1.0000
  C   C35       1.0  0.7173431998890808  0.9032528313902178  0.8273987553105115  1.0000
  C   C36       1.0  0.2826567999963415  0.09674716822759725  0.17260124436646684  1.0000
  C   C37       1.0  0.6876718079232128  0.980296940075936  0.8486696518014436  1.0000
  C   C38       1.0  0.3123281919684461  0.01970305953978001  0.15133034848470084  1.0000
  C   C39       1.0  0.7229248111805273  0.988806444582646  0.9280472298514834  1.0000
  C   C40       1.0  0.277075188728122  0.011193555686565014  0.07195277024766666  1.0000
  C   C41       1.0  0.8367827777352836  0.923838715447992  0.07431268369463485  1.0000
  C   C42       1.0  0.1632172221563752  0.07616128416772407  0.9256873165915095  1.0000
  C   C43       1.0  0.6025737266924535  0.3183455802534792  0.31162187223492527  1.0000
  C   C44       1.0  0.39742627319920537  0.6816544193622369  0.688378128051219  1.0000
  C   C45       1.0  0.4118178940400644  0.3450160273036698  0.32210473845541476  1.0000
  C   C46       1.0  0.5881821058515944  0.6549839723120462  0.6778952618307297  1.0000
  C   C47       1.0  0.2278932635429267  0.4354139601339177  0.38231814504976025  1.0000
  C   C48       1.0  0.7721067363594859  0.5645860401373923  0.617681854440224  1.0000
  C   C49       1.0  0.22881095555381883  0.49518370572809844  0.43767451029080456  1.0000
  C   C50       1.0  0.7711890443548304  0.5048162945411125  0.5623254898083455  1.0000
  C   C51       1.0  0.3451792844422664  0.6275736107676594  0.44952305958219224  1.0000
  C   C52       1.0  0.6548207167945895  0.3724263895018575  0.5504769398632647  1.0000
  C   C53       1.0  0.4499471762969002  0.7088689042490527  0.401913451698358  1.0000
  C   C54       1.0  0.5500528249399558  0.2911310960204643  0.5980865477470989  1.0000
  C   C55       1.0  0.737581915019974  0.7588500916375198  0.3394379382510245  1.0000
  C   C56       1.0  0.2624180848654482  0.24114990798029537  0.660562061425954  1.0000
  C   C57       1.0  0.9153212488819135  0.7282235604450583  0.31197362921598154  1.0000
  C   C58       1.0  0.08467875233795197  0.2717764391709635  0.6880263704164696  1.0000
  C   C59       1.0  0.05432894552455332  0.6664312460244888  0.2094171408576634  1.0000
  C   C60       1.0  0.9456710543840959  0.33356875424472215  0.7905828592414867  1.0000
  C   C61       1.0  0.02603424519394653  0.6042912416338132  0.15810663972709932  1.0000
  C   C62       1.0  0.9739657547147027  0.3957087586353978  0.8418933603720508  1.0000
  C   C63       1.0  0.9669387223887934  0.45341098150256876  0.17547138851266636  1.0000
  C   C64       1.0  0.033061278854299  0.5465890187648489  0.8245286115419566  1.0000
  C   C65       1.0  0.8830440365303805  0.37347755746350053  0.2394338525022492  1.0000
  C   C66       1.0  0.11695596337203205  0.6265224428078096  0.7605661469877351  1.0000
  N   N1        1.0  0.612817345611037  0.5625693988423403  0.2699038178749721  1.0000
  N   N2        1.0  0.3871826542806217  0.43743060077337576  0.7300961824111724  1.0000
  N   N3        1.0  0.06891538136732744  0.8257349543665964  0.49037578718486585  1.0000
  N   N4        1.0  0.9310846198695284  0.17426504590292038  0.509624212260591  1.0000
  N   N5        1.0  0.37236143351967915  0.10791574718454892  0.4427634197063949  1.0000
  N   N6        1.0  0.6276385663719798  0.8920842524311672  0.5572365805797495  1.0000
  N   N7        1.0  0.8212135227853984  0.7512406439772302  0.8687760417432623  1.0000
  N   N8        1.0  0.178786477100024  0.24875935564058496  0.13122395793371613  1.0000
  N   N9        1.0  0.6178001811416566  0.05582855566580761  0.7845611617090822  1.0000
  N   N10       1.0  0.38219981876699277  0.9441714446034034  0.21543883839006783  1.0000
  O   O1        1.0  0.36360572415036446  0.6849417528354895  0.8843364658053826  1.0000
  O   O2        1.0  0.6363942757350579  0.3150582467823255  0.11566353387159574  1.0000
  O   O3        1.0  0.2875617572540282  0.8020405566195383  0.9306060241782396  1.0000
  O   O4        1.0  0.712438242654621  0.19795944364967258  0.06939397592091041  1.0000
  O   O5        1.0  0.989960409366345  0.7618478588714644  0.5419210897009674  1.0000
  O   O6        1.0  0.01003959054230414  0.2381521413977467  0.4580789103981826  1.0000
  O   O7        1.0  0.09461459544557667  0.8357728328051888  0.41280720794727854  1.0000
  O   O8        1.0  0.9053854044398456  0.1642271668126263  0.5871927917297  1.0000
  O   O9        1.0  0.36521351535615115  0.12097050926834046  0.3648790278614099  1.0000
  O   O10       1.0  0.6347864845462615  0.8790294910029696  0.6351209716285743  1.0000
  O   O11       1.0  0.4508621516075217  0.15641306998158702  0.47551465929429737  1.0000
  O   O12       1.0  0.5491378482841373  0.8435869296341291  0.5244853409918471  1.0000
  O   O13       1.0  0.1923827200851234  0.0018712992085020896  0.761187722964073  1.0000
  O   O14       1.0  0.8076172798065353  0.998128700407214  0.2388122773220714  1.0000
  O   O15       1.0  0.15295884826989628  0.8552009725457074  0.7864438651442244  1.0000
  O   O16       1.0  0.8470411516325164  0.14479902772560257  0.21355613434575976  1.0000
  O   O17       1.0  0.875673308637497  0.6888012959682802  0.925963958483676  1.0000
  O   O18       1.0  0.12432669127115227  0.3111987043009308  0.0740360416154741  1.0000
  O   O19       1.0  0.7940260960528523  0.7492101625950943  0.7958868036045631  1.0000
  O   O20       1.0  0.2059739038388066  0.25078983702062174  0.20411319668158112  1.0000
  O   O21       1.0  0.5961118490062409  0.04895437746363906  0.7126447486187417  1.0000
  O   O22       1.0  0.40388815089617186  0.9510456228076709  0.2873552508712425  1.0000
  O   O23       1.0  0.5847760564940154  0.12268699368484179  0.8060913448559633  1.0000
  O   O24       1.0  0.41522394339764335  0.8773130059308742  0.19390865543018104  1.0000
  O   O25       1.0  0.7769212456952004  0.9967152452185633  0.08836621104362745  1.0000
  O   O26       1.0  0.2230787541964584  0.003284754397152796  0.9116337892425169  1.0000
  O   O27       1.0  0.9189688535171704  0.8659373785237303  0.12390955422226836  1.0000
  O   O28       1.0  0.08103114636825182  0.13406262109408473  0.87609044545471  1.0000
  O   O29       1.0  0.7045849967334291  0.394080931212635  0.26353395954974507  1.0000
  O   O30       1.0  0.2954150031752203  0.605919069056576  0.7364660405494049  1.0000
  O   O31       1.0  0.4039906665812311  0.4038503235975965  0.3729182671909572  1.0000
  O   O32       1.0  0.5960093333104278  0.5961496760181196  0.6270817330951872  1.0000
  O   O33       1.0  0.33207174401460465  0.5723961684160132  0.3952701206317968  1.0000
  O   O34       1.0  0.6679282558940446  0.4276038318531979  0.6047298794673532  1.0000
  O   O35       1.0  0.6268658769414535  0.6844102732029477  0.38145176643816864  1.0000
  O   O36       1.0  0.37313412296719567  0.31558972706626326  0.6185482336609813  1.0000
  O   O37       1.0  0.889855591727764  0.6781871424333753  0.25426078799195867  1.0000
  O   O38       1.0  0.1101444081808853  0.3218128578358356  0.7457392121071914  1.0000
  O   O39       1.0  0.9744790459476619  0.5210906841165615  0.2157979958719344  1.0000
  O   O40       1.0  0.02552095396098733  0.47890931615264953  0.7842020042272158  1.0000
