data_image0
_chemical_formula_structural       H56C52N20O20S8Cl4
_chemical_formula_sum              "H56 C52 N20 O20 S8 Cl4"
_cell_length_a       7.586010803723961
_cell_length_b       12.918879684258147
_cell_length_c       16.11879110907184
_cell_angle_alpha    90.0
_cell_angle_beta     90.0
_cell_angle_gamma    90.0

_space_group_name_H-M_alt    "P 1"
_space_group_IT_number       1

loop_
  _space_group_symop_operation_xyz
  'x, y, z'

loop_
  _atom_site_type_symbol
  _atom_site_label
  _atom_site_symmetry_multiplicity
  _atom_site_fract_x
  _atom_site_fract_y
  _atom_site_fract_z
  _atom_site_occupancy
  H   H1        1.0  0.8092091757879566  0.6779729437895881  0.26583138282550356  1.0000
  H   H2        1.0  0.6907908234756959  0.3220270558808054  0.7658313825440979  1.0000
  H   H3        1.0  0.19079082372114503  0.1779729439543913  0.2341686175134846  1.0000
  H   H4        1.0  0.30920917603340575  0.8220270557160021  0.7341686172320788  1.0000
  H   H5        1.0  0.6776333310092995  0.6583993634033473  0.17965337105027768  1.0000
  H   H6        1.0  0.822366668254353  0.3416006362670462  0.6796533713892658  1.0000
  H   H7        1.0  0.3223666684998022  0.15839936356815051  0.3203466286683166  1.0000
  H   H8        1.0  0.17763333125474862  0.8416006368763038  0.8203466290073048  1.0000
  H   H9        1.0  0.9946459799788285  0.6163260030745633  0.3342671664109836  1.0000
  H   H10       1.0  0.5053540206030397  0.3836739965958302  0.8342671661295779  1.0000
  H   H11       1.0  0.005354019530272992  0.11632600323936654  0.16573283392800456  1.0000
  H   H12       1.0  0.49464598022427775  0.8836739964310268  0.6657328336465989  1.0000
  H   H13       1.0  0.5561001808656936  0.6463256910871585  0.3305040293624576  1.0000
  H   H14       1.0  0.9438998183979588  0.35367430858323484  0.8305040297014459  1.0000
  H   H15       1.0  0.44389981864340805  0.14632569125196185  0.16949597035613667  1.0000
  H   H16       1.0  0.056100181111142775  0.8536743084184316  0.6694959706951249  1.0000
  H   H17       1.0  0.2782800492405964  0.6177831735460042  0.4101743775486341  1.0000
  H   H18       1.0  0.2217199505139544  0.3822168261243892  0.9101743772672285  1.0000
  H   H19       1.0  0.7217199502685052  0.11778317371080754  0.08982562216996015  1.0000
  H   H20       1.0  0.7782800503133631  0.8822168259595858  0.5898256225089483  1.0000
  H   H21       1.0  0.2884310880398291  0.6617035237518651  0.10701893636608649  1.0000
  H   H22       1.0  0.21156891303293762  0.3382964766925891  0.6070189367050747  1.0000
  H   H23       1.0  0.7115689127874884  0.16170352314260755  0.39298106335250776  1.0000
  H   H24       1.0  0.7884310877943798  0.8382964765277858  0.892981063071102  1.0000
  H   H25       1.0  0.08859780158368154  0.7473933867319282  0.006957756896351882  1.0000
  H   H26       1.0  0.4114021981708692  0.25260661371252613  0.5069577572353401  1.0000
  H   H27       1.0  0.9114021992436359  0.24739338689673146  0.4930422428222424  1.0000
  H   H28       1.0  0.5885978013382324  0.7526066135477228  0.9930422431612307  1.0000
  H   H29       1.0  0.24038652820067302  0.8399775750851526  0.9736102176525858  1.0000
  H   H30       1.0  0.25961347155387776  0.16002242458524088  0.4736102179339916  1.0000
  H   H31       1.0  0.7596134713084286  0.3399775752499558  0.5263897821235909  1.0000
  H   H32       1.0  0.7403865279552237  0.6600224251944985  0.02638978240499662  1.0000
  H   H33       1.0  0.921841720363369  0.9929195428323706  0.44633335783791717  1.0000
  H   H34       1.0  0.5781582789002833  0.007080457612083772  0.9463333581769054  1.0000
  H   H35       1.0  0.07815827914573252  0.4929195429971739  0.053666641880677074  1.0000
  H   H36       1.0  0.42184172060881825  0.5070804574472805  0.5536666422196653  1.0000
  H   H37       1.0  0.33263224444147776  0.9123026367651162  0.42022569584562575  1.0000
  H   H38       1.0  0.167367755313073  0.08769736367933816  0.9202256961846139  1.0000
  H   H39       1.0  0.6673677550676238  0.41230263692991953  0.07977430387296851  1.0000
  H   H40       1.0  0.8326322441960285  0.5876973635145349  0.5797743042119566  1.0000
  H   H41       1.0  0.43512796981248697  0.9086626106057812  0.27900372239881704  1.0000
  H   H42       1.0  0.06487202994206376  0.09133738906461214  0.7790037221174113  1.0000
  H   H43       1.0  0.5648720310148304  0.4086626107705846  0.22099627731977722  1.0000
  H   H44       1.0  0.9351279695670378  0.5913373888998088  0.7209962776587654  1.0000
  H   H45       1.0  0.8085968829610441  0.8820256809020923  0.19059152074196087  1.0000
  H   H46       1.0  0.6914031163026082  0.11797431876830111  0.6905915204605552  1.0000
  H   H47       1.0  0.19140311654805742  0.3820256810668956  0.30940847959702733  1.0000
  H   H48       1.0  0.30859688320649337  0.6179743186034978  0.8094084793156217  1.0000
  H   H49       1.0  0.1406773042659158  0.8992646788216545  0.5252812461372945  1.0000
  H   H50       1.0  0.359322695488635  0.10073532162279988  0.025281246418700255  1.0000
  H   H51       1.0  0.8593226952431857  0.39926467898645773  0.9747187536388823  1.0000
  H   H52       1.0  0.6406773053386824  0.6007353214579966  0.47471875392028795  1.0000
  H   H53       1.0  0.06487981005225964  0.7824319474324797  0.4786551099143978  1.0000
  H   H54       1.0  0.43512018970229116  0.21756805223791378  0.978655110253386  1.0000
  H   H55       1.0  0.9351201894568419  0.2824319475972829  0.021344889804196458  1.0000
  H   H56       1.0  0.5648798098068104  0.7175680528471714  0.5213448901431846  1.0000
  C   C1        1.0  0.1178343826720085  0.6415625094875201  0.21366386639638724  1.0000
  C   C2        1.0  0.3821656170825423  0.35843749095693417  0.7136638661149814  1.0000
  C   C3        1.0  0.882165618155309  0.14156250887826255  0.28633613394260093  1.0000
  C   C4        1.0  0.6178343824265593  0.8584374907921308  0.7863361336611953  1.0000
  C   C5        1.0  0.9528523511265783  0.6425037776390315  0.16302774706975626  1.0000
  C   C6        1.0  0.5471476481370741  0.35749622280542276  0.6630277467883505  1.0000
  C   C7        1.0  0.04714764838252326  0.142503777029774  0.3369722532692319  1.0000
  C   C8        1.0  0.45285235137202756  0.8574962226406194  0.8369722529878262  1.0000
  C   C9        1.0  0.11637685113322237  0.6284915734522725  0.30000497477000015  1.0000
  C   C10       1.0  0.3836231486213284  0.3715084269921819  0.8000049744885944  1.0000
  C   C11       1.0  0.8836231496940951  0.12849157284301482  0.19999502556898804  1.0000
  C   C12       1.0  0.6163768508877732  0.8715084268273786  0.6999950252875824  1.0000
  C   C13       1.0  0.4295858566929853  0.6437024295638474  0.29833904276441153  1.0000
  C   C14       1.0  0.07041414306156543  0.356297570106546  0.7983390424830058  1.0000
  C   C15       1.0  0.5704141428161162  0.14370242972865072  0.20166095757457667  1.0000
  C   C16       1.0  0.929585857765752  0.8562975699417427  0.701660957293171  1.0000
  C   C17       1.0  0.2746665690190096  0.6292272866280505  0.34323048251963933  1.0000
  C   C18       1.0  0.22533343073554116  0.37077271381640386  0.8432304822382336  1.0000
  C   C19       1.0  0.7253334304900919  0.12922728679285378  0.1567695178193489  1.0000
  C   C20       1.0  0.7746665687735603  0.8707727136516005  0.6567695175379431  1.0000
  C   C21       1.0  0.2810624009332197  0.6535129992957133  0.1742948469887934  1.0000
  C   C22       1.0  0.2189375988213311  0.3464870003746801  0.6742948473277816  1.0000
  C   C23       1.0  0.7189375998940978  0.1535129994605166  0.32570515272980083  1.0000
  C   C24       1.0  0.7810624006877706  0.8464870009839378  0.825705153068789  1.0000
  C   C25       1.0  0.9890932710399852  0.8789727079691483  0.2939683824882603  1.0000
  C   C26       1.0  0.5109067282236671  0.12102729247530603  0.7939683828272485  1.0000
  C   C27       1.0  0.010906728469116308  0.3789727073598907  0.20603161723033397  1.0000
  C   C28       1.0  0.4890932712854345  0.6210272923105028  0.7060316175693222  1.0000
  C   C29       1.0  0.25374199032976263  0.9058701385894996  0.17720462909854498  1.0000
  C   C30       1.0  0.24625800942478815  0.09412986108089376  0.6772046294375332  1.0000
  C   C31       1.0  0.746258009179339  0.40587013875430294  0.3227953706200493  1.0000
  C   C32       1.0  0.7537419900843134  0.5941298616901514  0.8227953703386436  1.0000
  C   C33       1.0  0.2976591133895471  0.9026731655539565  0.2602077600992941  1.0000
  C   C34       1.0  0.20234088636500366  0.09732683411643693  0.7602077598178885  1.0000
  C   C35       1.0  0.7023408861195545  0.4026731657187598  0.2397922402396941  1.0000
  C   C36       1.0  0.7976591131440979  0.5973268339516337  0.7397922399582885  1.0000
  C   C37       1.0  0.9458786252291632  0.8857818138784779  0.21015992868680225  1.0000
  C   C38       1.0  0.554121375352705  0.11421818656597643  0.7101599284053965  1.0000
  C   C39       1.0  0.054121374279938295  0.3857818140432812  0.289840071652186  1.0000
  C   C40       1.0  0.4458786254746125  0.6142181864011732  0.7898400713707803  1.0000
  C   C41       1.0  0.16693097897756165  0.8878514832812032  0.32154202476654853  1.0000
  C   C42       1.0  0.33306902077698913  0.1121485163891901  0.8215420251055368  1.0000
  C   C43       1.0  0.83306902053154  0.38785148344600656  0.17845797495204574  1.0000
  C   C44       1.0  0.6669309800503284  0.6121485162243868  0.6784579752910339  1.0000
  C   C45       1.0  0.07644384842100754  0.8978698473470679  0.15019036810009262  1.0000
  C   C46       1.0  0.42355615133354324  0.10213015309738643  0.6501903684390808  1.0000
  C   C47       1.0  0.92355615240631  0.3978698475118712  0.34980963161850165  1.0000
  C   C48       1.0  0.5764438481755584  0.6021301529325831  0.8498096319574898  1.0000
  C   C49       1.0  0.08644276642449422  0.8656463031873325  0.4685563984850782  1.0000
  C   C50       1.0  0.41355723333005656  0.13435369648306084  0.9685563988240664  1.0000
  C   C51       1.0  0.9135572330846072  0.3656463033521359  0.03144360123351612  1.0000
  C   C52       1.0  0.586442766179045  0.6343536963182576  0.5314436009521104  1.0000
  N   N1        1.0  0.4341278143689599  0.6553691447654493  0.21555265940784735  1.0000
  N   N2        1.0  0.06587218538559088  0.3446308549049441  0.7155526591264416  1.0000
  N   N3        1.0  0.5658721851401417  0.15536914493025258  0.2844473409311409  1.0000
  N   N4        1.0  0.9341278154417266  0.8446308555142018  0.7844473406497352  1.0000
  N   N5        1.0  0.8034402280323698  0.6596643593162601  0.20454572105872096  1.0000
  N   N6        1.0  0.6965597725494985  0.34033564112819426  0.7045457213977092  1.0000
  N   N7        1.0  0.19655977279494766  0.15966435948106342  0.29545427865987334  1.0000
  N   N8        1.0  0.30344022695960315  0.8403356409633909  0.7954542783784676  1.0000
  N   N9        1.0  0.9144103468182212  0.9131124314420298  0.45193018885269637  1.0000
  N   N10       1.0  0.585589653763647  0.08688756822836358  0.9519301885712907  1.0000
  N   N11       1.0  0.08558965269088037  0.41311243160683314  0.048069811486291816  1.0000
  N   N12       1.0  0.4144103470636704  0.5868875680635602  0.5480698112048861  1.0000
  N   N13       1.0  0.2133643586699665  0.8831916659076153  0.4025689666235552  1.0000
  N   N14       1.0  0.2866356410845843  0.11680833376277816  0.9025689669625434  1.0000
  N   N15       1.0  0.7866356408391351  0.38319166607241856  0.09743103309503907  1.0000
  N   N16       1.0  0.7133643584245173  0.6168083343720357  0.5974310334340273  1.0000
  N   N17       1.0  0.11170887201795185  0.8225652827271626  0.989782973303801  1.0000
  N   N18       1.0  0.3882911277365989  0.17743471694323085  0.48978297296481293  1.0000
  N   N19       1.0  0.8882911274911497  0.32256528289196584  0.5102170270927695  1.0000
  N   N20       1.0  0.6117088717725025  0.6774347167784276  0.010217026753781352  1.0000
  O   O1        1.0  0.9580026707096746  0.6280608573115548  0.08548272514211779  1.0000
  O   O2        1.0  0.5419973298721935  0.3719391423588387  0.5854827248607121  1.0000
  O   O3        1.0  0.041997330117642805  0.12806085747635804  0.4145172751968704  1.0000
  O   O4        1.0  0.45800266963690794  0.8719391429680963  0.9145172749154646  1.0000
  O   O5        1.0  0.7980443551475189  0.753240349614634  0.38400609748682446  1.0000
  O   O6        1.0  0.7019556454343493  0.24675965005575937  0.8840060972054188  1.0000
  O   O7        1.0  0.20195564567979854  0.2532403497794373  0.11599390285216377  1.0000
  O   O8        1.0  0.29804435407475227  0.746759650665017  0.615993902570758  1.0000
  O   O9        1.0  0.06623210841637008  0.009152093903627798  0.015600123377644506  1.0000
  O   O10       1.0  0.4337678926563966  0.9908479057667656  0.5156001237166328  1.0000
  O   O11       1.0  0.9337678924109474  0.5091520937388245  0.48439987634094983  1.0000
  O   O12       1.0  0.5662321081709208  0.4908479059315689  0.984399876679938  1.0000
  O   O13       1.0  0.6699921238584283  0.9244444875938018  0.34711618707255393  1.0000
  O   O14       1.0  0.8300078754052239  0.0755555128506525  0.8471161874115422  1.0000
  O   O15       1.0  0.3300078756506732  0.42444448775860516  0.15288381264604034  1.0000
  O   O16       1.0  0.16999212410387762  0.5755555126858493  0.6528838129850286  1.0000
  O   O17       1.0  0.8238373410873686  0.8829657763512974  0.043590499141375055  1.0000
  O   O18       1.0  0.6761626581762837  0.11703422409315688  0.5435904988599694  1.0000
  O   O19       1.0  0.17616265842173295  0.38296577574203977  0.45640950119761314  1.0000
  O   O20       1.0  0.32383734133281783  0.6170342239283536  0.9564095009162074  1.0000
  S   S1        1.0  0.009629867645869783  0.9083604760480335  0.04490542901772734  1.0000
  S   S2        1.0  0.490370132108681  0.0916395236223599  0.5449054293567156  1.0000
  S   S3        1.0  0.9903701318632318  0.40836047621283683  0.45509457070086695  1.0000
  S   S4        1.0  0.5096298687186365  0.5916395234575567  0.9550945710398552  1.0000
  S   S5        1.0  0.822298778817688  0.8632705499680037  0.3684272802975706  1.0000
  S   S6        1.0  0.6777012217641804  0.13672945047645074  0.8684272806365588  1.0000
  S   S7        1.0  0.17770122200962957  0.3632705493587459  0.13157271942102367  1.0000
  S   S8        1.0  0.32229877774492116  0.6367294503116475  0.6315727197600118  1.0000
  Cl  Cl1       1.0  0.42611902271654417  0.9157596362179727  0.10769668260189767  1.0000
  Cl  Cl2       1.0  0.07388097703800661  0.08424036345242068  0.6076966823204919  1.0000
  Cl  Cl3       1.0  0.5738809767925575  0.415759636382776  0.3923033171166966  1.0000
  Cl  Cl4       1.0  0.9261190237893109  0.5842403632876174  0.8923033174556848  1.0000
