data_image0
_chemical_formula_structural       H36C36N4O4
_chemical_formula_sum              "H36 C36 N4 O4"
_cell_length_a       17.33980316246724
_cell_length_b       5.247242016072595
_cell_length_c       7.830750663787422
_cell_angle_alpha    90.0
_cell_angle_beta     101.31659050592216
_cell_angle_gamma    90.0

_space_group_name_H-M_alt    "P 1"
_space_group_IT_number       1

loop_
  _space_group_symop_operation_xyz
  'x, y, z'

loop_
  _atom_site_type_symbol
  _atom_site_label
  _atom_site_symmetry_multiplicity
  _atom_site_fract_x
  _atom_site_fract_y
  _atom_site_fract_z
  _atom_site_occupancy
  H   H1        1.0  0.2006885531230151  0.7161660046343116  0.5686993171051985  1.0000
  H   H2        1.0  0.7993114465718537  0.21616600426007634  0.9313006815560761  1.0000
  H   H3        1.0  0.7993114468842812  0.2838339942083958  0.43130068293717905  1.0000
  H   H4        1.0  0.20068855343225261  0.7838339945826309  0.06869931720791747  1.0000
  H   H5        1.0  0.3287432175601204  0.874455375975652  0.6755139832343696  1.0000
  H   H6        1.0  0.6712567821379384  0.37445537750718005  0.8244860167052891  1.0000
  H   H7        1.0  0.6712567824471759  0.12554462286705514  0.3244860168080079  1.0000
  H   H8        1.0  0.328743217869358  0.6255446232412902  0.1755139833370885  1.0000
  H   H9        1.0  0.46649101878472277  0.8519248371444194  0.6590778110621376  1.0000
  H   H10       1.0  0.53350898150147  0.35192483677018416  0.8409221891261487  1.0000
  H   H11       1.0  0.5335089812225736  0.14807516169828797  0.34092218898024007  1.0000
  H   H12       1.0  0.4664910185058264  0.6480751620725231  0.15907781091622886  1.0000
  H   H13       1.0  0.4231496463987245  0.15575041469341164  0.3608298905282706  1.0000
  H   H14       1.0  0.5768503533296756  0.6557504150676469  0.13917010936819835  1.0000
  H   H15       1.0  0.576850353608572  0.8442495860550586  0.639170109514107  1.0000
  H   H16       1.0  0.42314964667762084  0.3442495856808236  0.8608298906741793  1.0000
  H   H17       1.0  0.28462416253049605  0.18041520042343379  0.37729414227828073  1.0000
  H   H18       1.0  0.7153758371979039  0.6804151988919059  0.12270585761818811  1.0000
  H   H19       1.0  0.7153758374768003  0.8195848003250367  0.6227058577640968  1.0000
  H   H20       1.0  0.28462416222125847  0.31958479995080136  0.8772941421755619  1.0000
  H   H21       1.0  0.1767502174235526  0.542483175214882  0.2680757498759425  1.0000
  H   H22       1.0  0.8232497828929813  0.04248317484064679  0.231924250269154  1.0000
  H   H23       1.0  0.8232497825837438  0.4575168255335884  0.7319242501664351  1.0000
  H   H24       1.0  0.17675021711431507  0.9575168240020605  0.7680757497732235  1.0000
  H   H25       1.0  0.19152158729657723  0.36046943217147615  0.10402745266828453  1.0000
  H   H26       1.0  0.8084784124318227  0.8604694325457114  0.3959725472281844  1.0000
  H   H27       1.0  0.8084784127107192  0.6395305685769943  0.895972547374093  1.0000
  H   H28       1.0  0.1915215875754736  0.13953056820275903  0.6040274528141933  1.0000
  H   H29       1.0  0.0540653478311432  0.840064760973094  0.21025716647615295  1.0000
  H   H30       1.0  0.9459346518972567  0.34006476059885876  0.289742833420316  1.0000
  H   H31       1.0  0.9459346521761531  0.1599352397753764  0.7897428335662247  1.0000
  H   H32       1.0  0.054065348110039595  0.6599352401496116  0.7102571666220616  1.0000
  H   H33       1.0  0.08824354153864897  0.17637736494050743  0.9108252827187873  1.0000
  H   H34       1.0  0.9117564581594099  0.6763773653147426  0.5891747172208714  1.0000
  H   H35       1.0  0.9117564584686473  0.8236226339021999  0.08917471732359032  1.0000
  H   H36       1.0  0.08824354184788649  0.32362263543372777  0.41082528282150615  1.0000
  C   C1        1.0  0.2959345929531484  0.532228220357611  0.5231807611252083  1.0000
  C   C2        1.0  0.7040654067449105  0.032228219983375814  0.9768192388144504  1.0000
  C   C3        1.0  0.704065407054148  0.46777178039085937  0.47681923891716943  1.0000
  C   C4        1.0  0.29593459326238586  0.9677717807650945  0.023180761227927105  1.0000
  C   C5        1.0  0.34868874607448974  0.7173466229440872  0.6044674733120555  1.0000
  C   C6        1.0  0.6513112542117031  0.2173466225698521  0.8955325268762306  1.0000
  C   C7        1.0  0.6513112539328068  0.2826533778043831  0.39553252673032213  1.0000
  C   C8        1.0  0.34868874579559334  0.7826533781786184  0.10446747316614682  1.0000
  C   C9        1.0  0.4278294394327121  0.702469403680923  0.5950674733137522  1.0000
  C   C10       1.0  0.5721705608534806  0.20246940330668783  0.904932526874534  1.0000
  C   C11       1.0  0.5721705605745842  0.2975305970675473  0.40493252672862534  1.0000
  C   C12       1.0  0.42782943915381577  0.7975305974417826  0.09506747316784354  1.0000
  C   C13       1.0  0.45801069277066836  0.5043524944902001  0.5063798706390203  1.0000
  C   C14       1.0  0.5419893069273906  0.004352496021728004  0.9936201293006383  1.0000
  C   C15       1.0  0.5419893072366279  0.49564750435250715  0.49362012940335726  1.0000
  C   C16       1.0  0.4580106930799059  0.9956475047267423  0.006379870741739268  1.0000
  C   C17       1.0  0.4041915526780469  0.3161284204004687  0.43051611442370563  1.0000
  C   C18       1.0  0.5958084476384871  0.8161284207747039  0.06948388572139087  1.0000
  C   C19       1.0  0.5958084473292495  0.6838715803480017  0.5694838856186719  1.0000
  C   C20       1.0  0.4041915523688094  0.18387157997376652  0.9305161143209868  1.0000
  C   C21       1.0  0.324817546151193  0.32874684352583416  0.43844913623431014  1.0000
  C   C22       1.0  0.675182454165341  0.8287468419943063  0.06155086391078634  1.0000
  C   C23       1.0  0.6751824538561034  0.6712531572226362  0.5615508638080674  1.0000
  C   C24       1.0  0.32481754584195544  0.171253156848401  0.9384491361315913  1.0000
  C   C25       1.0  0.0813876524958665  0.5085371099382283  0.06855834543266974  1.0000
  C   C26       1.0  0.9186123478206674  0.008537109563993141  0.43144165471242674  1.0000
  C   C27       1.0  0.9186123475114298  0.491462890810242  0.9314416546097077  1.0000
  C   C28       1.0  0.08138765218662898  0.9914628911844772  0.5685583453299509  1.0000
  C   C29       1.0  0.030892362695345333  0.6894546123313305  0.1186662020532779  1.0000
  C   C30       1.0  0.9691076376211886  0.18945461195709531  0.3813337980918186  1.0000
  C   C31       1.0  0.969107637311951  0.31054538841713986  0.8813337979890997  1.0000
  C   C32       1.0  0.03089236238610781  0.8105453887913749  0.618666201950559  1.0000
  C   C33       1.0  0.04957191229819446  0.31962017472471715  0.9491572649183274  1.0000
  C   C34       1.0  0.9504280873966743  0.8196201750989524  0.550842733742947  1.0000
  C   C35       1.0  0.9504280877091019  0.6803798241179901  0.05084273512405009  1.0000
  C   C36       1.0  0.049571912607431975  0.18037982374375494  0.44915726502104636  1.0000
  N   N1        1.0  0.16413926966824993  0.5224869353466601  0.13456039650599558  1.0000
  N   N2        1.0  0.83586073006015  0.022486936878187928  0.3654396033904733  1.0000
  N   N3        1.0  0.8358607303390464  0.4775130634960473  0.8654396035363819  1.0000
  N   N4        1.0  0.1641392699439563  0.9775130638702825  0.63456039537352  1.0000
  O   O1        1.0  0.21681901854052057  0.5424071752898206  0.5222168911103119  1.0000
  O   O2        1.0  0.7831809811575383  0.042407174915585495  0.9777831088293467  1.0000
  O   O3        1.0  0.7831809814667758  0.45759282545864965  0.47778310893206566  1.0000
  O   O4        1.0  0.2168190188497581  0.9575928239271219  0.02221689121303084  1.0000
