data_image0
_chemical_formula_structural       H44C48N4O4
_chemical_formula_sum              "H44 C48 N4 O4"
_cell_length_a       21.28199641648557
_cell_length_b       5.299222063280234
_cell_length_c       7.7887872292234706
_cell_angle_alpha    90.0
_cell_angle_beta     95.44016852871785
_cell_angle_gamma    90.0

_space_group_name_H-M_alt    "P 1"
_space_group_IT_number       1

loop_
  _space_group_symop_operation_xyz
  'x, y, z'

loop_
  _atom_site_type_symbol
  _atom_site_label
  _atom_site_symmetry_multiplicity
  _atom_site_fract_x
  _atom_site_fract_y
  _atom_site_fract_z
  _atom_site_occupancy
  H   H1        1.0  0.7401047634062737  0.7860097124183741  0.8623009952021268  1.0000
  H   H2        1.0  0.259895236574058  0.2860097127278756  0.63769900389118  1.0000
  H   H3        1.0  0.25989523635959244  0.21399028696262293  0.13769900409605645  1.0000
  H   H4        1.0  0.740104763663815  0.7139902866531215  0.3623009955291092  1.0000
  H   H5        1.0  0.6377950408412318  0.626076899662197  0.7871709967969294  1.0000
  H   H6        1.0  0.36220495913916095  0.1260768980846291  0.7128290035802902  1.0000
  H   H7        1.0  0.3622049593966411  0.37392310160586945  0.21282900262335996  1.0000
  H   H8        1.0  0.6377950406267663  0.873923101296368  0.2871709970018057  1.0000
  H   H9        1.0  0.5271253230414666  0.6486947044208465  0.8351977647431742  1.0000
  H   H10       1.0  0.4728746769388651  0.14869470473034802  0.6648022343501325  1.0000
  H   H11       1.0  0.47287467719640625  0.35130529496015056  0.16480223467711505  1.0000
  H   H12       1.0  0.527125322827001  0.8513052946506491  0.33519776494805065  1.0000
  H   H13       1.0  0.5619848434616829  0.34304101400022197  0.12014774092849216  1.0000
  H   H14       1.0  0.43801515656178563  0.8430410136907206  0.37985225998058625  1.0000
  H   H15       1.0  0.43801515630424437  0.6569589853807751  0.8798522596536037  1.0000
  H   H16       1.0  0.5619848436761483  0.15695898569027655  0.6201477407236158  1.0000
  H   H17       1.0  0.6728374947810766  0.3184082644303354  0.0712498421616425  1.0000
  H   H18       1.0  0.3271625052423307  0.8184082641208339  0.4287501574635232  1.0000
  H   H19       1.0  0.32716250545685727  0.6815917349506617  0.9287501585425595  1.0000
  H   H20       1.0  0.6728374945235355  0.1815917352601632  0.57124984183466  1.0000
  H   H21       1.0  0.7620145833919275  0.9497790920813955  0.15825486509425654  1.0000
  H   H22       1.0  0.237985416631541  0.449779092390897  0.34174513581482185  1.0000
  H   H23       1.0  0.23798541684600655  0.05022090918667101  0.8417451356099455  1.0000
  H   H24       1.0  0.7620145831343861  0.5502209088771696  0.658254864767274  1.0000
  H   H25       1.0  0.7476444971360066  0.1356254694401534  0.32208620331356447  1.0000
  H   H26       1.0  0.25235550288740083  0.635625469130652  0.17791379631160117  1.0000
  H   H27       1.0  0.2523555026299206  0.8643745299408436  0.6779137972685315  1.0000
  H   H28       1.0  0.7476444973504721  0.36437453025034516  0.8220862031086881  1.0000
  H   H29       1.0  0.859893399018795  0.6514685719479041  0.2069678830585457  1.0000
  H   H30       1.0  0.14010660053266666  0.15146857225740556  0.2930321177284266  1.0000
  H   H31       1.0  0.14010660074713222  0.348531427433093  0.7930321175235502  1.0000
  H   H32       1.0  0.8598933992332606  0.8485314271235915  0.7069678828536693  1.0000
  H   H33       1.0  0.9712202460916536  0.6622177950073997  0.31029066053151133  1.0000
  H   H34       1.0  0.028779753931753704  0.16221779531690123  0.18970933909365434  1.0000
  H   H35       1.0  0.028779754146219257  0.3377822043735973  0.689709338888778  1.0000
  H   H36       1.0  0.9712202458341735  0.8377822040640959  0.8102906614884415  1.0000
  H   H37       1.0  0.9390516175057091  0.333134584457712  0.6060801904899024  1.0000
  H   H38       1.0  0.0609483824746227  0.8331345841482106  0.8939198086034044  1.0000
  H   H39       1.0  0.060948382732163915  0.6668654168103545  0.39391980893038686  1.0000
  H   H40       1.0  0.9390516172912434  0.16686541711985597  0.10608019069477882  1.0000
  H   H41       1.0  0.8282971371206433  0.3206041641041069  0.4996789101437833  1.0000
  H   H42       1.0  0.17170286290276396  0.8206041637946054  0.0003210894813823449  1.0000
  H   H43       1.0  0.1717028631172295  0.6793958371639597  0.500321089276506  1.0000
  H   H44       1.0  0.8282971368631633  0.17939583558639166  0.9996789111007135  1.0000
  C   C1        1.0  0.6638829447723348  0.9673917017975897  0.9301187772526353  1.0000
  C   C2        1.0  0.336117055208058  0.46739170210709113  0.5698812231245842  1.0000
  C   C3        1.0  0.3361170554655993  0.03260829758340739  0.06988122345156676  1.0000
  C   C4        1.0  0.663882944557808  0.5326082972739059  0.4301187761735989  1.0000
  C   C5        1.0  0.6216483932534791  0.7825555959874296  0.8622078019932284  1.0000
  C   C6        1.0  0.3783516067268526  0.2825555962969311  0.6377921971000784  1.0000
  C   C7        1.0  0.37835160651238703  0.21744440339356744  0.13779219730495482  1.0000
  C   C8        1.0  0.6216483935110204  0.717444403084066  0.36220780232021094  1.0000
  C   C9        1.0  0.5581157850246987  0.7975909406188793  0.8896977091780337  1.0000
  C   C10       1.0  0.441884214955694  0.2975909390413113  0.6103022911991858  1.0000
  C   C11       1.0  0.4418842152131742  0.20240906064918723  0.11030229024225562  1.0000
  C   C12       1.0  0.5581157848102332  0.7024090603396859  0.38969770938291004  1.0000
  C   C13       1.0  0.5337748884065708  0.9953764112944028  0.9842486844250303  1.0000
  C   C14       1.0  0.46622511157382185  0.4953764116039043  0.515751315952189  1.0000
  C   C15       1.0  0.4662251113592952  0.0046235880865942705  0.015751314873152743  1.0000
  C   C16       1.0  0.5337748886641122  0.5046235896641622  0.48424868475201294  1.0000
  C   C17       1.0  0.5770036225117146  0.18263310698116333  0.04697550699532393  1.0000
  C   C18       1.0  0.4229963775116929  0.6826331066716619  0.45302449262984174  1.0000
  C   C19       1.0  0.42299637772615845  0.8173668923998337  0.9530244924249653  1.0000
  C   C20       1.0  0.5770036222542343  0.3173668927093352  0.5469755079522541  1.0000
  C   C21       1.0  0.6406914533251785  0.17006623033308838  0.0206343334687112  1.0000
  C   C22       1.0  0.3593085466982288  0.6700662300235869  0.4793656661564545  1.0000
  C   C23       1.0  0.3593085469126943  0.8299337709349781  0.979365665951578  1.0000
  C   C24       1.0  0.6406914530676373  0.3299337693574102  0.5206343331417288  1.0000
  C   C25       1.0  0.8356380534846053  0.9848834786835394  0.3470841666906154  1.0000
  C   C26       1.0  0.16436194653880198  0.48488347899304085  0.15291583293455016  1.0000
  C   C27       1.0  0.16436194628126077  0.015116520697457673  0.6529158326075677  1.0000
  C   C28       1.0  0.835638053699071  0.5151165203879562  0.8470841664857391  1.0000
  C   C29       1.0  0.8770881002707479  0.8011192207658008  0.295100996807529  1.0000
  C   C30       1.0  0.12291189975272049  0.3011192210753022  0.20489900410154938  1.0000
  C   C31       1.0  0.12291189949517928  0.19888077861519632  0.7048990037745669  1.0000
  C   C32       1.0  0.8770881004852136  0.6988807783056948  0.7951009966026525  1.0000
  C   C33       1.0  0.9407744810444887  0.8083553810063218  0.3549182872552085  1.0000
  C   C34       1.0  0.05922551897897967  0.30835538131582324  0.14508171365386996  1.0000
  C   C35       1.0  0.059225518721438455  0.1916446183746753  0.6450817133268875  1.0000
  C   C36       1.0  0.9407744812589544  0.6916446199522434  0.854918287050332  1.0000
  C   C37       1.0  0.9660266197876844  0.9973625726355044  0.4685735745495046  1.0000
  C   C38       1.0  0.0339733802357839  0.4973625729450059  0.03142642635957378  1.0000
  C   C39       1.0  0.03397338045024945  0.0026374267454926438  0.5314264261546975  1.0000
  C   C40       1.0  0.9660266195301433  0.5026374264359912  0.9685735742225221  1.0000
  C   C41       1.0  0.9234400860256731  0.1801436623339175  0.5190233096962158  1.0000
  C   C42       1.0  0.07655991395471973  0.680143662024416  0.9809766906810037  1.0000
  C   C43       1.0  0.07655991374019311  0.8198563389341491  0.4809766896019673  1.0000
  C   C44       1.0  0.9234400862832142  0.31985633735658103  0.019023310023198365  1.0000
  C   C45       1.0  0.859711892872351  0.17418681439981523  0.4600162020189426  1.0000
  C   C46       1.0  0.1402881071510564  0.6741868159773832  0.03998379760622308  1.0000
  C   C47       1.0  0.14028810689351517  0.8258131849811818  0.5399837972792406  1.0000
  C   C48       1.0  0.8597118930868775  0.3258131852906833  0.9600162030979789  1.0000
  N   N1        1.0  0.7701387162675222  0.9739905137708238  0.2897519598765747  1.0000
  N   N2        1.0  0.22986128375594636  0.4739905140803253  0.2102480410325037  1.0000
  N   N3        1.0  0.2298612839704119  0.02600948749724272  0.7102480408276273  1.0000
  N   N4        1.0  0.7701387160099809  0.5260094871877412  0.7897519595495921  1.0000
  O   O1        1.0  0.7273008897685056  0.9580944484627288  0.9120171535794948  1.0000
  O   O2        1.0  0.2726991102118261  0.4580944487722304  0.5879828455138121  1.0000
  O   O3        1.0  0.2726991104693673  0.041905550918268177  0.08798284584079454  1.0000
  O   O4        1.0  0.72730088955404  0.5419055506087668  0.4120171537843711  1.0000
