data_image0
_chemical_formula_structural       H36C40N4O8F8S4I4
_chemical_formula_sum              "H36 C40 N4 O8 F8 S4 I4"
_cell_length_a       11.340142039654578
_cell_length_b       5.739960223634992
_cell_length_c       18.227711313115158
_cell_angle_alpha    90.0
_cell_angle_beta     89.95194078940385
_cell_angle_gamma    90.0

_space_group_name_H-M_alt    "P 1"
_space_group_IT_number       1

loop_
  _space_group_symop_operation_xyz
  'x, y, z'

loop_
  _atom_site_type_symbol
  _atom_site_label
  _atom_site_symmetry_multiplicity
  _atom_site_fract_x
  _atom_site_fract_y
  _atom_site_fract_z
  _atom_site_occupancy
  H   H1        1.0  0.05413206087650755  0.10054121065573056  0.224894706000883  1.0000
  H   H2        1.0  0.9458679397257166  0.6005412103390915  0.2751052944316195  1.0000
  H   H3        1.0  0.945867939114778  0.8994587887109912  0.7751052940939189  1.0000
  H   H4        1.0  0.054132060265568965  0.3994587890276303  0.7248947056631825  1.0000
  H   H5        1.0  0.11163678945417282  0.38668082417379857  0.32119323506082265  1.0000
  H   H6        1.0  0.8883632102629262  0.8866808238571594  0.17880676482558827  1.0000
  H   H7        1.0  0.8883632105338051  0.6133191769350955  0.6788067644853697  1.0000
  H   H8        1.0  0.11163678972835933  0.11331917550956229  0.8211932352692137  1.0000
  H   H9        1.0  0.3249789704387669  0.634247609418888  0.30180630544009374  1.0000
  H   H10       1.0  0.6750210292783322  0.1342476097355272  0.1981936944463172  1.0000
  H   H11       1.0  0.6750210295492108  0.365752391690006  0.6981936941060986  1.0000
  H   H12       1.0  0.3249789707129534  0.8657523913733668  0.8018063056484848  1.0000
  H   H13       1.0  0.279432742419217  0.30439093860018795  0.40413420882857004  1.0000
  H   H14       1.0  0.7205672581796992  0.8043909382835488  0.09586579105532282  1.0000
  H   H15       1.0  0.7205672575720686  0.6956090625087061  0.595865791266232  1.0000
  H   H16       1.0  0.2794327418115862  0.1956090610831729  0.9041342090394792  1.0000
  H   H17       1.0  0.1626064956886053  0.7235883469885376  0.21557762957759513  1.0000
  H   H18       1.0  0.8373935040284938  0.22358834730517663  0.2844223703088158  1.0000
  H   H19       1.0  0.8373935043026802  0.27641165412035656  0.7844223705172069  1.0000
  H   H20       1.0  0.16260649596279184  0.7764116538037175  0.7155776297859863  1.0000
  H   H21       1.0  0.6211249464766192  0.08753397417827657  0.33678399142088544  1.0000
  H   H22       1.0  0.3788750532404799  0.5875339738616375  0.1632160084655255  1.0000
  H   H23       1.0  0.37887505351135864  0.9124660269306175  0.6632160081253069  1.0000
  H   H24       1.0  0.6211249467508057  0.4124660255050843  0.8367839916292765  1.0000
  H   H25       1.0  0.5356792493299621  0.9196957564728407  0.2720081727678462  1.0000
  H   H26       1.0  0.4643207512689542  0.41969575678947985  0.2279918271160466  1.0000
  H   H27       1.0  0.46432075066132344  0.08030424463605337  0.7279918273269558  1.0000
  H   H28       1.0  0.5356792487223314  0.5803042443194142  0.7720081729787555  1.0000
  H   H29       1.0  0.6749263231069403  0.8095121183709928  0.3040770873136308  1.0000
  H   H30       1.0  0.3250736774952837  0.3095121186876319  0.19592291311887172  1.0000
  H   H31       1.0  0.3250736777661624  0.19048788099572894  0.695922912778653  1.0000
  H   H32       1.0  0.6749263224960018  0.6904878824212621  0.8040770869759303  1.0000
  H   H33       1.0  0.4158334817337187  0.04198168290570434  0.45007751754025943  1.0000
  H   H34       1.0  0.5841665179833804  0.5419816825890652  0.049922482346151494  1.0000
  H   H35       1.0  0.5841665182575668  0.9580183164610174  0.5499224825545425  1.0000
  H   H36       1.0  0.4158334820045974  0.45801831677765653  0.950077517200041  1.0000
  C   C1        1.0  0.9761179098097599  0.18114785285768567  0.5474770183031248  1.0000
  C   C2        1.0  0.0238820904524044  0.6811478525410465  0.9525229814514585  1.0000
  C   C3        1.0  0.02388209018152571  0.818852146509036  0.45252298179167716  1.0000
  C   C4        1.0  0.9761179095388811  0.31885214682567525  0.047477018643343444  1.0000
  C   C5        1.0  0.9071893085664736  0.15856039494009494  0.48448915924727043  1.0000
  C   C6        1.0  0.09281069115393326  0.6585603946234558  0.015510841187750125  1.0000
  C   C7        1.0  0.09281069142481196  0.8414396044266268  0.5155108408475315  1.0000
  C   C8        1.0  0.9071893088373524  0.34143960474326596  0.9844891589070517  1.0000
  C   C9        1.0  0.9329820185037188  0.9742991244037629  0.43726887875646164  1.0000
  C   C10       1.0  0.0670179812133804  0.47429912472040203  0.06273112112994934  1.0000
  C   C11       1.0  0.06701798148756692  0.025700874962958805  0.5627311213383404  1.0000
  C   C12       1.0  0.9329820187779051  0.5257008746463196  0.9372688789648526  1.0000
  C   C13       1.0  0.31378505281278085  0.9650907487459734  0.35768077280362026  1.0000
  C   C14       1.0  0.6862149469043182  0.46509074906261266  0.1423192270827907  1.0000
  C   C15       1.0  0.6862149471785047  0.034909250620748226  0.6423192272911817  1.0000
  C   C16       1.0  0.3137850530869674  0.5349092503041091  0.8576807730120113  1.0000
  C   C17       1.0  0.12615526008055603  0.061389242480995906  0.26230939594549035  1.0000
  C   C18       1.0  0.873844739636543  0.5613892421643567  0.23769060394092065  1.0000
  C   C19       1.0  0.8738447399107294  0.9386107568857258  0.7376906041493116  1.0000
  C   C20       1.0  0.12615526035474253  0.438610757202365  0.7623093961538813  1.0000
  C   C21       1.0  0.15865491057721995  0.22229826519458834  0.3161200692122372  1.0000
  C   C22       1.0  0.841345089139879  0.7222982648779492  0.18387993067417377  1.0000
  C   C23       1.0  0.8413450894107579  0.7777017359143057  0.6838799303339551  1.0000
  C   C24       1.0  0.15865491085140646  0.27770173448877256  0.8161200694206283  1.0000
  C   C25       1.0  0.28041686309626046  0.8013773912682273  0.30453607470097793  1.0000
  C   C26       1.0  0.7195831375026558  0.3013773915848663  0.19546392518291494  1.0000
  C   C27       1.0  0.7195831368950252  0.19862260809849452  0.6954639253938241  1.0000
  C   C28       1.0  0.2804168624886297  0.6986226077818555  0.8045360749118871  1.0000
  C   C29       1.0  0.2525952861890152  0.17668326965474296  0.3631707606056498  1.0000
  C   C30       1.0  0.7474047144132089  0.6766832710802763  0.13682923982685266  1.0000
  C   C31       1.0  0.7474047138022704  0.8233167297119788  0.6368292394891522  1.0000
  C   C32       1.0  0.25259528557807664  0.3233167300286179  0.8631707602679493  1.0000
  C   C33       1.0  0.1877401904996256  0.8516460166172151  0.2567988794563869  1.0000
  C   C34       1.0  0.8122598092174733  0.3516460169338542  0.24320112043002406  1.0000
  C   C35       1.0  0.8122598094916599  0.14835398274950667  0.7432011206384151  1.0000
  C   C36       1.0  0.1877401907738121  0.6483539824328675  0.756798879664778  1.0000
  C   C37       1.0  0.5967563623869717  0.9120413079595763  0.31859115041989444  1.0000
  C   C38       1.0  0.40324363733012725  0.4120413082762154  0.18140884946651653  1.0000
  C   C39       1.0  0.4032436376043138  0.08795869314931783  0.6814088496749076  1.0000
  C   C40       1.0  0.5967563626611583  0.5879586928326787  0.8185911506282855  1.0000
  N   N1        1.0  0.40560065649688376  0.9229857914668534  0.4084101578838252  1.0000
  N   N2        1.0  0.5943993432202153  0.4229857917834925  0.09158984200258573  1.0000
  N   N3        1.0  0.5943993434910939  0.07701420789986833  0.591589841662367  1.0000
  N   N4        1.0  0.4056006567710702  0.5770142075832292  0.9084101580922163  1.0000
  O   O1        1.0  0.5948350378413232  0.788323030770839  0.4581113652065758  1.0000
  O   O2        1.0  0.40516496276090097  0.2883230310874782  0.04188863522592672  1.0000
  O   O3        1.0  0.4051649621499624  0.21167696859588267  0.5418886348882263  1.0000
  O   O4        1.0  0.5948350372303844  0.7116769682792435  0.9581113648688752  1.0000
  O   O5        1.0  0.491955632044588  0.5376096313862248  0.3668523781429378  1.0000
  O   O6        1.0  0.5080443685576362  0.03760963170286384  0.13314762228956467  1.0000
  O   O7        1.0  0.5080443679466976  0.462390367980497  0.6331476219518641  1.0000
  O   O8        1.0  0.4919556314336494  0.9623903676638579  0.8668523778052373  1.0000
  F   F1        1.0  0.8693377582512287  0.9425381534393076  0.37521654850886305  1.0000
  F   F2        1.0  0.1306622414658703  0.44253815375594663  0.12478345137754795  1.0000
  F   F3        1.0  0.13066224174005683  0.057461845927414226  0.624783451585939  1.0000
  F   F4        1.0  0.8693377585254153  0.5574618473529475  0.8752165487172541  1.0000
  F   F5        1.0  0.9557483525058489  0.3574335901409316  0.5950310986111187  1.0000
  F   F6        1.0  0.04425164775631548  0.8574335898242925  0.9049689011434648  1.0000
  F   F7        1.0  0.044251647485436786  0.6425664092257901  0.4049689014836833  1.0000
  F   F8        1.0  0.9557483522349702  0.14256640954242925  0.09503109895133725  1.0000
  S   S1        1.0  0.5239034797610974  0.7683209479119282  0.39175812548117656  1.0000
  S   S2        1.0  0.47609651995600166  0.2683209482285672  0.10824187440523436  1.0000
  S   S3        1.0  0.47609652023018817  0.23167905145479362  0.6082418746136254  1.0000
  S   S4        1.0  0.5239034800352839  0.7316790511381545  0.8917581256895677  1.0000
  I   I1        1.0  0.7713384326324652  0.39236237399808427  0.46268710764913334  1.0000
  I   I2        1.0  0.2286615670846339  0.8923623754236174  0.03731289223727761  1.0000
  I   I3        1.0  0.2286615673588204  0.6076376253686375  0.5373128924456686  1.0000
  I   I4        1.0  0.7713384329033438  0.10763762568527664  0.9626871073089147  1.0000
