data_image0
_chemical_formula_structural       H104C104N16O24F16S8Cl8I8
_chemical_formula_sum              "H104 C104 N16 O24 F16 S8 Cl8 I8"
_cell_length_a       16.97999818870753
_cell_length_b       8.840925620997679
_cell_length_c       22.299283657892495
_cell_angle_alpha    90.0
_cell_angle_beta     95.95808935950586
_cell_angle_gamma    90.0

_space_group_name_H-M_alt    "P 1"
_space_group_IT_number       1

loop_
  _space_group_symop_operation_xyz
  'x, y, z'

loop_
  _atom_site_type_symbol
  _atom_site_label
  _atom_site_symmetry_multiplicity
  _atom_site_fract_x
  _atom_site_fract_y
  _atom_site_fract_z
  _atom_site_occupancy
  H   H1        1.0  0.2598083743898445  0.46036293647052606  0.05188102905142692  1.0000
  H   H2        1.0  0.7401916259584294  0.46036293647052606  0.44811897109275883  1.0000
  H   H3        1.0  0.759808374459969  0.9603629364141022  0.051881028988299  1.0000
  H   H4        1.0  0.24019162588830492  0.9603629364141022  0.4481189711558867  1.0000
  H   H5        1.0  0.7401916255161175  0.5396370634166262  0.9481189709122729  1.0000
  H   H6        1.0  0.2598083739475327  0.5396370634166262  0.5518810288709411  1.0000
  H   H7        1.0  0.24019162544599318  0.03963706347305012  0.948118970975401  1.0000
  H   H8        1.0  0.7598083740176571  0.03963706347305012  0.5518810288078132  1.0000
  H   H9        1.0  0.14037374519666418  0.13428140908463274  0.32461875699821563  1.0000
  H   H10       1.0  0.8596262545626749  0.13428140908463274  0.1753812431459233  1.0000
  H   H11       1.0  0.6403737452667886  0.6342814090282088  0.3246187569350877  1.0000
  H   H12       1.0  0.35962625449255065  0.6342814090282088  0.1753812432090512  1.0000
  H   H13       1.0  0.8596262547092979  0.8657185919336229  0.6753812429654843  1.0000
  H   H14       1.0  0.14037374534328703  0.8657185919336229  0.8246187568177766  1.0000
  H   H15       1.0  0.3596262546391735  0.36571859199004664  0.6753812430286124  1.0000
  H   H16       1.0  0.6403737454134114  0.36571859199004664  0.8246187567546488  1.0000
  H   H17       1.0  0.10360376062813643  0.3195698687125898  0.33490034082049824  1.0000
  H   H18       1.0  0.8963962391312028  0.3195698687125898  0.16509965932364068  1.0000
  H   H19       1.0  0.6036037606982607  0.819569868656166  0.33490034075737035  1.0000
  H   H20       1.0  0.3963962390610784  0.819569868656166  0.16509965938676863  1.0000
  H   H21       1.0  0.8963962392778255  0.6804301311745624  0.6650996591432017  1.0000
  H   H22       1.0  0.10360376077475927  0.6804301311745624  0.8349003406400592  1.0000
  H   H23       1.0  0.39639623920770123  0.18043013123098628  0.6650996592063296  1.0000
  H   H24       1.0  0.6036037609062859  0.18043013123098628  0.8349003410278117  1.0000
  H   H25       1.0  0.1741422848686123  0.05332068724573243  0.12921561836636597  1.0000
  H   H26       1.0  0.8258577148907269  0.05332068724573243  0.37078438177777295  1.0000
  H   H27       1.0  0.6741422849387367  0.5533206871893086  0.12921561830323805  1.0000
  H   H28       1.0  0.32585771482060255  0.5533206871893086  0.3707843818409009  1.0000
  H   H29       1.0  0.8258577150373498  0.9466793126414197  0.8707843815973338  1.0000
  H   H30       1.0  0.17414228501523513  0.9466793126414197  0.6292156181859271  1.0000
  H   H31       1.0  0.3258577149672254  0.44667931269784367  0.8707843816604619  1.0000
  H   H32       1.0  0.6741422850853594  0.44667931269784367  0.6292156181227991  1.0000
  H   H33       1.0  0.22125227897164468  0.3704657770472674  0.41075154670304276  1.0000
  H   H34       1.0  0.7787477213766291  0.3704657770472674  0.08924845344114296  1.0000
  H   H35       1.0  0.721252279041769  0.8704657769908435  0.4107515466399148  1.0000
  H   H36       1.0  0.27874772130650477  0.8704657769908435  0.08924845350427088  1.0000
  H   H37       1.0  0.7787477209957197  0.6295342228398849  0.5892484537115378  1.0000
  H   H38       1.0  0.2212522785293329  0.6295342228398849  0.910751546522557  1.0000
  H   H39       1.0  0.2787477214531276  0.12953422289630875  0.5892484533238319  1.0000
  H   H40       1.0  0.7212522785994572  0.12953422289630875  0.910751546459429  1.0000
  H   H41       1.0  0.25231169901701045  0.18157552148016443  0.403188953077718  1.0000
  H   H42       1.0  0.7476883007423286  0.18157552148016443  0.0968110470664209  1.0000
  H   H43       1.0  0.7523116990871348  0.6815755214237406  0.4031889530145901  1.0000
  H   H44       1.0  0.24768830061080216  0.6815755214237406  0.0968110466786683  1.0000
  H   H45       1.0  0.7476883008889516  0.8184244784069878  0.5968110468859819  1.0000
  H   H46       1.0  0.2523116991636333  0.8184244784069878  0.9031889528972791  1.0000
  H   H47       1.0  0.24768830081882723  0.3184244784634117  0.5968110469491098  1.0000
  H   H48       1.0  0.7523116992951598  0.3184244784634117  0.9031889532850317  1.0000
  H   H49       1.0  0.1397208477118666  0.4659525287958626  0.9762219784922248  1.0000
  H   H50       1.0  0.8602791523407182  0.4659525287958626  0.5237780212910361  1.0000
  H   H51       1.0  0.6397208477819909  0.9659525287394387  0.976221978429097  1.0000
  H   H52       1.0  0.36027915227059387  0.9659525287394387  0.5237780213541641  1.0000
  H   H53       1.0  0.8602791521940955  0.5340474710912897  0.02377802147147509  1.0000
  H   H54       1.0  0.13972084756524378  0.5340474710912897  0.4762219786726638  1.0000
  H   H55       1.0  0.36027915212397105  0.03404747114771355  0.02377802153460301  1.0000
  H   H56       1.0  0.6397208476353681  0.03404747114771355  0.47622197860953586  1.0000
  H   H57       1.0  0.05500459843821576  0.05686317491530585  0.053852115941169364  1.0000
  H   H58       1.0  0.9449954018486558  0.05686317491530585  0.4461478837521358  1.0000
  H   H59       1.0  0.5550045979194055  0.5568631748588819  0.05385211587799467  1.0000
  H   H60       1.0  0.44499540177853136  0.5568631748588819  0.4461478838152637  1.0000
  H   H61       1.0  0.9449954020566809  0.9431368249718464  0.9461478840225774  1.0000
  H   H62       1.0  0.055004598057306224  0.9431368249718464  0.553852116211564  1.0000
  H   H63       1.0  0.4449954019865565  0.4431368250282703  0.9461478840857052  1.0000
  H   H64       1.0  0.5550045981274306  0.4431368250282703  0.5538521161484362  1.0000
  H   H65       1.0  0.1213554509471283  0.0921849470223265  0.4380609216225689  1.0000
  H   H66       1.0  0.8786445494011454  0.0921849470223265  0.061939078521616786  1.0000
  H   H67       1.0  0.6213554510172526  0.5921849469659026  0.438060921559441  1.0000
  H   H68       1.0  0.3786445493310211  0.5921849469659026  0.06193907858474471  1.0000
  H   H69       1.0  0.8786445489588337  0.9078150528648258  0.561939078341131  1.0000
  H   H70       1.0  0.12135545109375113  0.9078150528648258  0.9380609214421299  1.0000
  H   H71       1.0  0.37864454888870935  0.40781505292124964  0.5619390784042589  1.0000
  H   H72       1.0  0.6213554505749409  0.40781505292124964  0.9380609213789552  1.0000
  H   H73       1.0  0.0926922016879717  0.28338618233022433  0.4451683513855759  1.0000
  H   H74       1.0  0.9073077986603021  0.28338618233022433  0.05483164875860983  1.0000
  H   H75       1.0  0.5926922011691614  0.7833861822738005  0.44516835132240123  1.0000
  H   H76       1.0  0.40730779859017774  0.7833861822738005  0.05483164882173776  1.0000
  H   H77       1.0  0.9073077988069248  0.7166138186880312  0.5548316485781709  1.0000
  H   H78       1.0  0.09269220124565992  0.7166138186880312  0.94516835120509  1.0000
  H   H79       1.0  0.40730779873680056  0.21661381874445507  0.5548316486412987  1.0000
  H   H80       1.0  0.5926922013157844  0.21661381874445507  0.9451683511419623  1.0000
  H   H81       1.0  0.17275821943792466  0.20995623982984388  0.493632051644981  1.0000
  H   H82       1.0  0.8272417802600123  0.20995623982984388  0.0063679480482774845  1.0000
  H   H83       1.0  0.6727582195080489  0.70995623977342  0.493632051581853  1.0000
  H   H84       1.0  0.32724178077882254  0.70995623977342  0.006367948111452184  1.0000
  H   H85       1.0  0.8272417804680373  0.7900437611884117  0.506367948318719  1.0000
  H   H86       1.0  0.1727582196459497  0.7900437611884117  0.9936320519154225  1.0000
  H   H87       1.0  0.327241780397913  0.29004376011373223  0.506367948381847  1.0000
  H   H88       1.0  0.672758219716074  0.29004376011373223  0.9936320518522945  1.0000
  H   H89       1.0  0.21905253049592688  0.4219707675336159  0.2941585523104899  1.0000
  H   H90       1.0  0.7809474692634124  0.4219707675336159  0.20584144783364908  1.0000
  H   H91       1.0  0.7190525305660512  0.9219707674771921  0.29415855224736187  1.0000
  H   H92       1.0  0.280947469193288  0.9219707674771921  0.20584144789677702  1.0000
  H   H93       1.0  0.7809474694100352  0.5780292334846397  0.7058414476532101  1.0000
  H   H94       1.0  0.2190525306425497  0.5780292334846397  0.7941585521300509  1.0000
  H   H95       1.0  0.2809474693399108  0.07802923354106353  0.705841447716338  1.0000
  H   H96       1.0  0.719052530712674  0.07802923354106353  0.7941585520669229  1.0000
  H   H97       1.0  0.28493527944422103  0.42460882275541384  0.22077203833291356  1.0000
  H   H98       1.0  0.715064720253716  0.42460882275541384  0.2792279613603449  1.0000
  H   H99       1.0  0.7849352795143454  0.9246088226989899  0.22077203826978561  1.0000
  H   H100      1.0  0.21506472018359163  0.9246088226989899  0.2792279614234728  1.0000
  H   H101      1.0  0.7150647204617411  0.5753911771317385  0.7792279616307863  1.0000
  H   H102      1.0  0.284935279652246  0.5753911771317385  0.720772038603355  1.0000
  H   H103      1.0  0.21506472039161667  0.07539117718816232  0.7792279616939144  1.0000
  H   H104      1.0  0.7849352797223704  0.07539117718816232  0.7207720385402271  1.0000
  C   C1        1.0  0.045677483057417693  0.8414942709540021  0.20225719058744174  1.0000
  C   C2        1.0  0.954322517290856  0.8414942709540021  0.297742809556744  1.0000
  C   C3        1.0  0.545677483127542  0.341494271010426  0.20225719052431382  1.0000
  C   C4        1.0  0.4543225172207317  0.341494271010426  0.2977428096198719  1.0000
  C   C5        1.0  0.9543225168485442  0.15850572893315013  0.7977428093762582  1.0000
  C   C6        1.0  0.04567748320404052  0.15850572893315013  0.7022571904070027  1.0000
  C   C7        1.0  0.45432251677841995  0.6585057288767263  0.7977428094393862  1.0000
  C   C8        1.0  0.5456774826852303  0.6585057288767263  0.702257190343828  1.0000
  C   C9        1.0  0.02243946958510371  0.9786024247791002  0.22559544469009526  1.0000
  C   C10       1.0  0.9775605307631701  0.9786024247791002  0.2744045554540904  1.0000
  C   C11       1.0  0.5224394696552281  0.47860242483552407  0.22559544462696735  1.0000
  C   C12       1.0  0.47756053069304577  0.47860242483552407  0.2744045555172184  1.0000
  C   C13       1.0  0.9775605303208584  0.021397575108052104  0.7744045552736046  1.0000
  C   C14       1.0  0.02243946973172653  0.021397575108052104  0.7255954445096563  1.0000
  C   C15       1.0  0.4775605302507339  0.5213975750516282  0.7744045553367326  1.0000
  C   C16       1.0  0.5224394698018509  0.5213975750516282  0.7255954444465285  1.0000
  C   C17       1.0  0.023430077406157802  0.7034618948980788  0.2257407184011074  1.0000
  C   C18       1.0  0.976569922942116  0.7034618948980788  0.2742592817430783  1.0000
  C   C19       1.0  0.5234300774762822  0.20346189495450256  0.22574071833797948  1.0000
  C   C20       1.0  0.4765699228719917  0.20346189495450256  0.27425928180620623  1.0000
  C   C21       1.0  0.9765699224998043  0.29653810498907357  0.7742592815625927  1.0000
  C   C22       1.0  0.02343007755278064  0.29653810498907357  0.7257407182206685  1.0000
  C   C23       1.0  0.4765699224296798  0.7965381049326496  0.7742592816257204  1.0000
  C   C24       1.0  0.5234300770339705  0.7965381049326496  0.7257407181574937  1.0000
  C   C25       1.0  0.22290527128813906  0.2578206759919306  0.09479951380677755  1.0000
  C   C26       1.0  0.7770947290601348  0.2578206759919306  0.4052004863374082  1.0000
  C   C27       1.0  0.7229052713582634  0.7578206759355066  0.09479951374364963  1.0000
  C   C28       1.0  0.27709472899001036  0.7578206759355066  0.40520048640053613  1.0000
  C   C29       1.0  0.7770947286178229  0.7421793238952217  0.9052004861569224  1.0000
  C   C30       1.0  0.2229052708458273  0.7421793238952217  0.5947995136262918  1.0000
  C   C31       1.0  0.27709472913663324  0.24217932395164554  0.9052004862200972  1.0000
  C   C32       1.0  0.7229052709159517  0.24217932395164554  0.5947995135631639  1.0000
  C   C33       1.0  0.23321190980253434  0.22555897034851027  0.24909194157026512  1.0000
  C   C34       1.0  0.7667880898954026  0.22555897034851027  0.25090805812299327  1.0000
  C   C35       1.0  0.7332119098726588  0.7255589702920864  0.2490919415071372  1.0000
  C   C36       1.0  0.26678808982527824  0.7255589702920864  0.2509080581861212  1.0000
  C   C37       1.0  0.7667880901034277  0.774441029538642  0.7509080583934347  1.0000
  C   C38       1.0  0.2332119100105594  0.774441029538642  0.7490919418407067  1.0000
  C   C39       1.0  0.26678809003330334  0.27444102959506583  0.7509080584565628  1.0000
  C   C40       1.0  0.7332119100806838  0.27444102959506583  0.7490919417775787  1.0000
  C   C41       1.0  0.21402253994510054  0.3745263405605196  0.05237363200435397  1.0000
  C   C42       1.0  0.7859774604031733  0.3745263405605196  0.44762636813983175  1.0000
  C   C43       1.0  0.7140225400152249  0.8745263405040958  0.05237363194122605  1.0000
  C   C44       1.0  0.28597746033304894  0.8745263405040958  0.44762636820295965  1.0000
  C   C45       1.0  0.7859774600222638  0.6254736593266326  0.9476263684102266  1.0000
  C   C46       1.0  0.21402253950278877  0.6254736593266326  0.5523736318238682  1.0000
  C   C47       1.0  0.2859774604796717  0.1254736593830565  0.9476263680225205  1.0000
  C   C48       1.0  0.7140225395729131  0.1254736593830565  0.5523736317607403  1.0000
  C   C49       1.0  0.15761975272360154  0.25022176577822614  0.33731003913853  1.0000
  C   C50       1.0  0.8423802476246722  0.25022176577822614  0.16268996100565566  1.0000
  C   C51       1.0  0.6576197527937259  0.7502217657218023  0.33731003907540213  1.0000
  C   C52       1.0  0.3423802475545479  0.7502217657218023  0.16268996106878358  1.0000
  C   C53       1.0  0.8423802471823604  0.7497782341089261  0.6626899608251698  1.0000
  C   C54       1.0  0.1576197528702244  0.7497782341089261  0.8373100389580912  1.0000
  C   C55       1.0  0.34238024711223614  0.24977823416534992  0.6626899608882978  1.0000
  C   C56       1.0  0.6576197523514141  0.24977823416534992  0.8373100388949163  1.0000
  C   C57       1.0  0.16627937515390692  0.14312668426874578  0.09580094316818218  1.0000
  C   C58       1.0  0.8337206246054323  0.14312668426874578  0.4041990569759567  1.0000
  C   C59       1.0  0.6662793752240314  0.6431266853434252  0.09580094310505426  1.0000
  C   C60       1.0  0.3337206251242425  0.6431266853434252  0.4041990570391314  1.0000
  C   C61       1.0  0.8337206247520552  0.8568733156184064  0.9041990567955178  1.0000
  C   C62       1.0  0.16627937530052975  0.8568733156184064  0.5958009429877431  1.0000
  C   C63       1.0  0.3337206246819307  0.3568733156748303  0.9041990568586455  1.0000
  C   C64       1.0  0.6662793754320563  0.3568733156748303  0.5958009433754958  1.0000
  C   C65       1.0  0.19964337470487875  0.2547199282676321  0.4011996414665472  1.0000
  C   C66       1.0  0.8003566250544605  0.2547199282676321  0.09880035867759175  1.0000
  C   C67       1.0  0.6996433747750032  0.7547199282112083  0.40119964140341924  1.0000
  C   C68       1.0  0.3003566255732707  0.7547199282112083  0.09880035874076645  1.0000
  C   C69       1.0  0.8003566252010833  0.7452800716195201  0.5988003584971527  1.0000
  C   C70       1.0  0.19964337485150158  0.7452800716195201  0.9011996412861082  1.0000
  C   C71       1.0  0.3003566251309589  0.24528007167594398  0.5988003585602807  1.0000
  C   C72       1.0  0.6996433749830282  0.24528007167594398  0.9011996416738608  1.0000
  C   C73       1.0  0.14752216461001816  0.37725092744571975  0.010221149453953138  1.0000
  C   C74       1.0  0.8524778351493211  0.37725092744571975  0.4897788506901858  1.0000
  C   C75       1.0  0.6475221646801426  0.8772509273892959  0.010221149390825215  1.0000
  C   C76       1.0  0.3524778350791967  0.8772509273892959  0.4897788507533137  1.0000
  C   C77       1.0  0.8524778352959439  0.6227490724414325  0.9897788505097469  1.0000
  C   C78       1.0  0.14752216475664098  0.6227490724414325  0.5102211492735141  1.0000
  C   C79       1.0  0.35247783522581944  0.12274907249785637  0.9897788505728746  1.0000
  C   C80       1.0  0.6475221648267654  0.12274907249785637  0.5102211492103862  1.0000
  C   C81       1.0  0.09949354399093145  0.14575119000430944  0.053883642179688135  1.0000
  C   C82       1.0  0.9005064557684078  0.14575119000430944  0.4461163579644508  1.0000
  C   C83       1.0  0.5994935440610558  0.6457511899478855  0.05388364211656021  1.0000
  C   C84       1.0  0.40050645563688114  0.6457511899478855  0.44611635757669815  1.0000
  C   C85       1.0  0.9005064559150305  0.8542488098828428  0.9461163577840118  1.0000
  C   C86       1.0  0.09949354419895651  0.8542488098828428  0.5538836424501297  1.0000
  C   C87       1.0  0.40050645584490624  0.3542488099392667  0.9461163578471398  1.0000
  C   C88       1.0  0.599493544269081  0.3542488099392667  0.5538836423870017  1.0000
  C   C89       1.0  0.09077320287517956  0.26287457780215273  0.0114153823990772  1.0000
  C   C90       1.0  0.9092267974730942  0.26287457780215273  0.4885846177451084  1.0000
  C   C91       1.0  0.590773202945304  0.762874577745729  0.011415382335949275  1.0000
  C   C92       1.0  0.4092267973415676  0.762874577745729  0.4885846173573559  1.0000
  C   C93       1.0  0.9092267970307825  0.7371254220849994  0.9885846175646227  1.0000
  C   C94       1.0  0.0907732030218024  0.7371254220849994  0.5114153822186382  1.0000
  C   C95       1.0  0.40922679696065806  0.23712542214142335  0.9885846176277507  1.0000
  C   C96       1.0  0.5907732025643944  0.23712542214142335  0.511415382606344  1.0000
  C   C97       1.0  0.14401811416325144  0.2072011878088032  0.4471686817292673  1.0000
  C   C98       1.0  0.8559818855346855  0.2072011878088032  0.05283131796399106  1.0000
  C   C99       1.0  0.6440181142333757  0.7072011877523794  0.4471686816661394  1.0000
  C   C100      1.0  0.35598188546456117  0.7072011877523794  0.052831318027119  1.0000
  C   C101      1.0  0.8559818857427105  0.7927988132094523  0.5528313182344327  1.0000
  C   C102      1.0  0.14401811437127648  0.7927988132094523  0.9471686819997087  1.0000
  C   C103      1.0  0.3559818856725862  0.29279881213477293  0.5528313182975605  1.0000
  C   C104      1.0  0.6440181144414008  0.29279881213477293  0.947168681936581  1.0000
  N   N1        1.0  0.2795612319492445  0.30881388974878665  0.21236278269243716  1.0000
  N   N2        1.0  0.7204387678100947  0.30881388974878665  0.28763721745170173  1.0000
  N   N3        1.0  0.7795612320193688  0.8088138896923627  0.21236278262930924  1.0000
  N   N4        1.0  0.2204387677399704  0.8088138896923627  0.2876372175148297  1.0000
  N   N5        1.0  0.7204387680181197  0.6911861101383656  0.7876372177221431  1.0000
  N   N6        1.0  0.2795612320958673  0.6911861101383656  0.7123627825119982  1.0000
  N   N7        1.0  0.2204387678865932  0.1911861101947895  0.7876372173343907  1.0000
  N   N8        1.0  0.7795612321659916  0.1911861101947895  0.7123627824488703  1.0000
  N   N9        1.0  0.20706846985170468  0.3083524075267996  0.29326785464701016  1.0000
  N   N10       1.0  0.7929315298462324  0.3083524075267996  0.20673214504624823  1.0000
  N   N11       1.0  0.707068469921829  0.8083524074703757  0.29326785458388227  1.0000
  N   N12       1.0  0.2929315303650425  0.8083524074703757  0.20673214510942292  1.0000
  N   N13       1.0  0.7929315300542573  0.6916475923603527  0.7067321453166897  1.0000
  N   N14       1.0  0.20706847005972978  0.6916475923603527  0.7932678549174517  1.0000
  N   N15       1.0  0.29293152998413297  0.19164759241677654  0.7067321453798178  1.0000
  N   N16       1.0  0.7070684701298542  0.19164759241677654  0.7932678548543239  1.0000
  O   O1        1.0  0.33631052662690886  0.09991413318782313  0.15285309630301208  1.0000
  O   O2        1.0  0.6636894731324304  0.09991413318782313  0.3471469038411268  1.0000
  O   O3        1.0  0.8363105266970332  0.5999141331313992  0.15285309623988416  1.0000
  O   O4        1.0  0.16368947306230597  0.5999141331313992  0.34714690390425473  1.0000
  O   O5        1.0  0.6636894732790533  0.9000858666993291  0.847146903660688  1.0000
  O   O6        1.0  0.33631052677353174  0.9000858666993291  0.6528530961225731  1.0000
  O   O7        1.0  0.1636894732089288  0.400085866755753  0.8471469037238157  1.0000
  O   O8        1.0  0.8363105269050584  0.400085866755753  0.6528530965103257  1.0000
  O   O9        1.0  0.2188299460502912  0.08802035367787474  0.239862900310204  1.0000
  O   O10       1.0  0.7811700542979827  0.08802035367787474  0.2601370998339817  1.0000
  O   O11       1.0  0.7188299461204156  0.5880203536214509  0.23986290024707607  1.0000
  O   O12       1.0  0.2811700542278582  0.5880203536214509  0.26013709989710965  1.0000
  O   O13       1.0  0.781170053855671  0.9119796462092776  0.760137099653496  1.0000
  O   O14       1.0  0.21882994560797944  0.9119796462092776  0.7398629001297182  1.0000
  O   O15       1.0  0.28117005437448106  0.4119796462657014  0.7601370997166707  1.0000
  O   O16       1.0  0.7188299456781039  0.4119796462657014  0.7398629000665903  1.0000
  O   O17       1.0  0.3608426206589089  0.3733059728679813  0.13205200730657435  1.0000
  O   O18       1.0  0.6391573796893649  0.3733059728679813  0.3679479928376113  1.0000
  O   O19       1.0  0.8608426207290333  0.8733059728115574  0.13205200724344646  1.0000
  O   O20       1.0  0.13915737961924057  0.8733059728115574  0.36794799290073926  1.0000
  O   O21       1.0  0.6391573793084554  0.626694027019171  0.8679479931080061  1.0000
  O   O22       1.0  0.3608426208055317  0.626694027019171  0.6320520071261354  1.0000
  O   O23       1.0  0.1391573791769288  0.12669402707559482  0.8679479927202535  1.0000
  O   O24       1.0  0.8608426202867214  0.12669402707559482  0.6320520070629607  1.0000
  F   F1        1.0  0.09104130907703759  0.8465503218604632  0.15577910962593586  1.0000
  F   F2        1.0  0.9089586906208994  0.8465503218604632  0.34422089006732254  1.0000
  F   F3        1.0  0.5910413092085641  0.346550321916887  0.15577911001368844  1.0000
  F   F4        1.0  0.4089586911397097  0.346550321916887  0.3442208901304973  1.0000
  F   F5        1.0  0.9089586908289244  0.15344967802668907  0.844220890337764  1.0000
  F   F6        1.0  0.09104130928506263  0.15344967802668907  0.6557791098963773  1.0000
  F   F7        1.0  0.4089586907588001  0.6534496779702652  0.8442208904008921  1.0000
  F   F8        1.0  0.591041309355187  0.6534496779702652  0.6557791098332494  1.0000
  F   F9        1.0  0.04248640592729046  0.11062350164751565  0.20108800281883427  1.0000
  F   F10       1.0  0.9575135937706466  0.11062350164751565  0.29891199687442416  1.0000
  F   F11       1.0  0.542486406058817  0.6106235015910918  0.20108800320658685  1.0000
  F   F12       1.0  0.4575135942894567  0.6106235015910918  0.29891199693759885  1.0000
  F   F13       1.0  0.9575135939786716  0.8893764982396366  0.7989119971448657  1.0000
  F   F14       1.0  0.04248640613531551  0.8893764982396366  0.7010880030892758  1.0000
  F   F15       1.0  0.457513593847145  0.38937649829606047  0.7989119967571132  1.0000
  F   F16       1.0  0.5424864062054399  0.38937649829606047  0.7010880030261478  1.0000
  S   S1        1.0  0.3086230100880962  0.2539105503465008  0.147327285584992  1.0000
  S   S2        1.0  0.6913769896712431  0.2539105503465008  0.3526727145591469  1.0000
  S   S3        1.0  0.8086230101582206  0.7539105502900769  0.14732728552186408  1.0000
  S   S4        1.0  0.19137698960111868  0.7539105502900769  0.35267271462227484  1.0000
  S   S5        1.0  0.6913769898178659  0.7460894495406514  0.852672714378708  1.0000
  S   S6        1.0  0.308623010234719  0.7460894495406514  0.6473272854045531  1.0000
  S   S7        1.0  0.19137698974774153  0.2460894495970753  0.852672714441836  1.0000
  S   S8        1.0  0.8086230103048434  0.2460894495970753  0.647327285341425  1.0000
  Cl  Cl1       1.0  0.008885217756230244  0.2663751071954209  0.9588633043011074  1.0000
  Cl  Cl2       1.0  0.9911147822963545  0.2663751071954209  0.5411366954821534  1.0000
  Cl  Cl3       1.0  0.5088852178263547  0.7663751071389971  0.9588633042379796  1.0000
  Cl  Cl4       1.0  0.4911147822262302  0.7663751071389971  0.5411366955452813  1.0000
  Cl  Cl5       1.0  0.9911147827386664  0.7336248926917313  0.041136695662639174  1.0000
  Cl  Cl6       1.0  0.008885217609607447  0.7336248926917313  0.45886330448154655  1.0000
  Cl  Cl7       1.0  0.491114782668542  0.23362489274815518  0.0411366957257671  1.0000
  Cl  Cl8       1.0  0.5088852176797317  0.23362489274815518  0.45886330441841866  1.0000
  I   I1        1.0  0.06154811819134478  0.5064898611255012  0.18628706998738231  1.0000
  I   I2        1.0  0.9384518815679945  0.5064898611255012  0.3137129301567566  1.0000
  I   I3        1.0  0.5615481182614692  0.006489861181925112  0.1862870699242544  1.0000
  I   I4        1.0  0.43845188143646785  0.006489861181925112  0.313712929769004  1.0000
  I   I5        1.0  0.9384518817146172  0.493510138761651  0.8137129299763175  1.0000
  I   I6        1.0  0.061548118337967604  0.493510138761651  0.6862870698069433  1.0000
  I   I7        1.0  0.43845188164449284  0.9935101387052271  0.8137129300394454  1.0000
  I   I8        1.0  0.5615481184694943  0.9935101387052271  0.686287070194696  1.0000
