data_image0
_chemical_formula_structural       H44C60N4O8F8S4I4
_chemical_formula_sum              "H44 C60 N4 O8 F8 S4 I4"
_cell_length_a       10.529924866744132
_cell_length_b       5.991542461019217
_cell_length_c       23.823726411494768
_cell_angle_alpha    90.0
_cell_angle_beta     95.35916782263003
_cell_angle_gamma    90.0

_space_group_name_H-M_alt    "P 1"
_space_group_IT_number       1

loop_
  _space_group_symop_operation_xyz
  'x, y, z'

loop_
  _atom_site_type_symbol
  _atom_site_label
  _atom_site_symmetry_multiplicity
  _atom_site_fract_x
  _atom_site_fract_y
  _atom_site_fract_z
  _atom_site_occupancy
  H   H1        1.0  0.9117387730024806  0.04816128098521615  0.6058620158924074  1.0000
  H   H2        1.0  0.5882612262177832  0.5481612809001615  0.894137983999947  1.0000
  H   H3        1.0  0.08826122708154671  0.9518387188446744  0.3941379838956208  1.0000
  H   H4        1.0  0.411738772916468  0.45183871892972916  0.10586201578759716  1.0000
  H   H5        1.0  0.8355352538350982  0.48476950783486805  0.8252989444639143  1.0000
  H   H6        1.0  0.6644647463349418  0.9847695077498133  0.6747010554289241  1.0000
  H   H7        1.0  0.16446474633692698  0.5152304919950226  0.17470105574570607  1.0000
  H   H8        1.0  0.33553525374908555  0.015230492080077292  0.3252989443591041  1.0000
  H   H9        1.0  0.989329902391748  0.6687575638608411  0.6938174046623485  1.0000
  H   H10       1.0  0.5106700968285157  0.16875756394589572  0.806182595230006  1.0000
  H   H11       1.0  0.010670096742503155  0.33124243596904956  0.3061825951251959  1.0000
  H   H12       1.0  0.48932990230573553  0.8312424358839949  0.19381740455753826  1.0000
  H   H13       1.0  0.047551726135083024  0.17129623910324618  0.5307819049923971  1.0000
  H   H14       1.0  0.4524482742454596  0.6712962390181915  0.9692180949811292  1.0000
  H   H15       1.0  0.9524482739489444  0.8287037607266444  0.4692180947956311  1.0000
  H   H16       1.0  0.5475517259265655  0.3287037608116991  0.03078190522849124  1.0000
  H   H17       1.0  0.17616311347114408  0.8516584958211203  0.880723840540477  1.0000
  H   H18       1.0  0.32383688595962257  0.351658495906175  0.6192761594325653  1.0000
  H   H19       1.0  0.8238368857511053  0.14834150400877033  0.11927615966865944  1.0000
  H   H20       1.0  0.6761631141244048  0.6483415039237156  0.3807238403554629  1.0000
  H   H21       1.0  0.1988341187334126  0.28666626518538013  0.7700621090380482  1.0000
  H   H22       1.0  0.30116588164713004  0.7866662651003254  0.7299378909354781  1.0000
  H   H23       1.0  0.8011658814386126  0.7133337346445104  0.22993789117157218  1.0000
  H   H24       1.0  0.6988341184368972  0.2133337347295652  0.27006210885255016  1.0000
  H   H25       1.0  0.12430508106715116  0.7895745562646405  0.6194852240213756  1.0000
  H   H26       1.0  0.3756949183636155  0.2895745563496951  0.8805147759516667  1.0000
  H   H27       1.0  0.8756949190168761  0.21042544356525025  0.3805147757666525  1.0000
  H   H28       1.0  0.6243050808586338  0.7104254434801957  0.11948522425746985  1.0000
  H   H29       1.0  0.9417884682872049  0.7941355604096983  0.8806746718338776  1.0000
  H   H30       1.0  0.558211531882835  0.2941355588257338  0.6193253280589609  1.0000
  H   H31       1.0  0.05821153188482034  0.20586444108921148  0.11932532837574288  1.0000
  H   H32       1.0  0.4417884682011922  0.7058644410041568  0.3806746717290673  1.0000
  H   H33       1.0  0.30376415770143567  0.5999084248146282  0.8249849465394162  1.0000
  H   H34       1.0  0.19623584172933092  0.09990842489968295  0.6750150534336259  1.0000
  H   H35       1.0  0.6962358424705896  0.40009157501526244  0.175015053670204  1.0000
  H   H36       1.0  0.8037641574049204  0.9000915749302076  0.32498494635391834  1.0000
  H   H37       1.0  0.15186422714135564  0.5435851971657343  0.5376460420380393  1.0000
  H   H38       1.0  0.348135773239187  0.043585197250788944  0.962353957935487  1.0000
  H   H39       1.0  0.8481357729426717  0.4564148026641564  0.46235395774998883  1.0000
  H   H40       1.0  0.6518642269328382  0.9564148025791017  0.037646042274133505  1.0000
  H   H41       1.0  0.7941012253925809  0.3840359815473266  0.7064123673991973  1.0000
  H   H42       1.0  0.7058987747774589  0.8840359814622719  0.7935876324936411  1.0000
  H   H43       1.0  0.20589877469144632  0.6159640199515833  0.29358763238883073  1.0000
  H   H44       1.0  0.2941012253065684  0.11596402003663803  0.20641236729438722  1.0000
  C   C1        1.0  0.5937671501682993  0.8541705367684926  0.5258839516800368  1.0000
  C   C2        1.0  0.9062328491399625  0.35417053685354727  0.9741160486339099  1.0000
  C   C3        1.0  0.40623284905394985  0.14582946306139807  0.47411604852909967  1.0000
  C   C4        1.0  0.09376715008228671  0.6458294629763434  0.025883951575226646  1.0000
  C   C5        1.0  0.6278512387607375  0.03774336099114139  0.49444367822921953  1.0000
  C   C6        1.0  0.8721487611147725  0.537743362575106  0.0055563217949028305  1.0000
  C   C7        1.0  0.3721487614112877  0.9622566388387492  0.5055563219804009  1.0000
  C   C8        1.0  0.12785123896925493  0.4622566389238039  0.9944436779931253  1.0000
  C   C9        1.0  0.46431868285249167  0.8186841371671734  0.5310133235254116  1.0000
  C   C10       1.0  0.03568131752805097  0.31868413725222794  0.9689866764481146  1.0000
  C   C11       1.0  0.5356813172315356  0.18131586266271735  0.4689866762626166  1.0000
  C   C12       1.0  0.9643186826439741  0.6813158625776627  0.03101332376150578  1.0000
  C   C13       1.0  0.9424058003915732  0.34996451475423745  0.6540815836272602  1.0000
  C   C14       1.0  0.5575941998664647  0.8499645146691828  0.8459184166871705  1.0000
  C   C15       1.0  0.057594199780452056  0.6500354867446725  0.34591841658236017  1.0000
  C   C16       1.0  0.44240580030556054  0.1500354851607079  0.15408158352245002  1.0000
  C   C17       1.0  0.9589543244485301  0.2100066966371724  0.6082742007859135  1.0000
  C   C18       1.0  0.5410456757215096  0.7100066965521177  0.8917257991069248  1.0000
  C   C19       1.0  0.041045675723495004  0.7899933031927183  0.3917257994237069  1.0000
  C   C20       1.0  0.45895432436251754  0.28999330327777295  0.10827420068110334  1.0000
  C   C21       1.0  0.9381835023116714  0.5088066436704206  0.8258491839190426  1.0000
  C   C22       1.0  0.5618164978583686  0.0088066437554753  0.6741508159737957  1.0000
  C   C23       1.0  0.06181649777235597  0.49119335615947  0.1741508158689855  1.0000
  C   C24       1.0  0.43818350231365655  0.9911933577434346  0.32584918423582465  1.0000
  C   C25       1.0  0.0018242198798035835  0.5594529241523218  0.658217247789404  1.0000
  C   C26       1.0  0.498175780500739  0.05945292423737652  0.8417827521841221  1.0000
  C   C27       1.0  0.9981757802922216  0.4405470756775688  0.3417827524202164  1.0000
  C   C28       1.0  0.5018242195832883  0.9405470755925142  0.158217247603906  1.0000
  C   C29       1.0  0.03458325745712055  0.27977829597402953  0.5665223217183051  1.0000
  C   C30       1.0  0.4654167429234221  0.7797782958889748  0.9334776782552212  1.0000
  C   C31       1.0  0.9654167427149045  0.720221703855861  0.43347767849131535  1.0000
  C   C32       1.0  0.5345832571606052  0.22022170394091578  0.066522321532807  1.0000
  C   C33       1.0  0.1295280405046312  0.7149521158982671  0.8566992794361539  1.0000
  C   C34       1.0  0.37047195987591136  0.21495211598332178  0.6433007205373723  1.0000
  C   C35       1.0  0.8704719595793959  0.28504788393162356  0.14330072035187422  1.0000
  C   C36       1.0  0.6295280402961138  0.7850478838465689  0.35669927967224807  1.0000
  C   C37       1.0  0.14306545753270233  0.3981244521789177  0.7942567352308483  1.0000
  C   C38       1.0  0.35693454284784026  0.898124452093863  0.7057432647426778  1.0000
  C   C39       1.0  0.8569345426393228  0.6018755476509731  0.20574326497877207  1.0000
  C   C40       1.0  0.643065457236187  0.10187554773602768  0.29425673504535027  1.0000
  C   C41       1.0  0.07748063311195787  0.6274436648756552  0.6162082425310044  1.0000
  C   C42       1.0  0.42251936631880876  0.12744366496070983  0.8837917574420381  1.0000
  C   C43       1.0  0.9225193670600674  0.37255633495423546  0.383791757678616  1.0000
  C   C44       1.0  0.5774806337652185  0.8725563348691808  0.11620824234599017  1.0000
  C   C45       1.0  0.9981931009334228  0.6823785171514094  0.8568386347378014  1.0000
  C   C46       1.0  0.501806899236617  0.18237851723646414  0.6431613651550371  1.0000
  C   C47       1.0  0.0018068992386022899  0.3176214826784812  0.143161365471819  1.0000
  C   C48       1.0  0.49819310084741025  0.8176214825934265  0.35683863463299115  1.0000
  C   C49       1.0  0.20146336254305355  0.5737061987565834  0.8254514919726271  1.0000
  C   C50       1.0  0.2985366378374891  0.07370619884163808  0.6745485080008992  1.0000
  C   C51       1.0  0.7985366376289716  0.4262938010733073  0.1745485082369933  1.0000
  C   C52       1.0  0.7014633622465382  0.9262938009882525  0.32545149178712907  1.0000
  C   C53       1.0  0.011619904708248967  0.367286348101029  0.7950485816020699  1.0000
  C   C54       1.0  0.48838009472251764  0.8672863480159743  0.7049514183709725  1.0000
  C   C55       1.0  0.9883800953757784  0.6327136517288617  0.20495141818595833  1.0000
  C   C56       1.0  0.5116199044997315  0.13271365181391637  0.295048581838164  1.0000
  C   C57       1.0  0.09367725989028787  0.4885846856707456  0.5704196643860452  1.0000
  C   C58       1.0  0.4063227404902548  0.988584685585691  0.9295803355874811  1.0000
  C   C59       1.0  0.9063227401937394  0.511415314159145  0.4295803354019829  1.0000
  C   C60       1.0  0.5936772596817704  0.0114153142441997  0.07041966462213939  1.0000
  N   N1        1.0  0.8636054577005758  0.2732131751798578  0.6961080833574462  1.0000
  N   N2        1.0  0.6363945424694639  0.7732131750948031  0.8038919165353923  1.0000
  N   N3        1.0  0.13639454238345133  0.7267868246500327  0.30389191643058194  1.0000
  N   N4        1.0  0.3636054576145633  0.2267868247350875  0.19610808325263604  1.0000
  O   O1        1.0  0.8271430679680296  0.07956316476123375  0.7840332083726815  1.0000
  O   O2        1.0  0.6728569322020104  0.5795631646761791  0.7159667915201567  1.0000
  O   O3        1.0  0.17285693220399564  0.9204368350686569  0.21596679183693887  1.0000
  O   O4        1.0  0.3271430678820169  0.42043683515371155  0.2840332082678714  1.0000
  O   O5        1.0  0.02623389300423744  0.9996711562953886  0.7365733888655366  1.0000
  O   O6        1.0  0.4737661064265292  0.49967115638044335  0.7634266111075059  1.0000
  O   O7        1.0  0.9737661070797898  0.0003288435345019381  0.2634266109224916  1.0000
  O   O8        1.0  0.526233893745496  0.5003288434494473  0.23657338910211462  1.0000
  F   F1        1.0  0.7520336679842918  0.07903804789517306  0.48799236248519445  1.0000
  F   F2        1.0  0.7479663318912181  0.5790380478101184  0.012007637538927918  1.0000
  F   F3        1.0  0.24796633218773342  0.9209619519347175  0.512007637724426  1.0000
  F   F4        1.0  0.25203366819280926  0.42096195201977227  0.9879923622491003  1.0000
  F   F5        1.0  0.4260215666395807  0.6448684967414449  0.5615105329300163  1.0000
  F   F6        1.0  0.07397843374096186  0.14486849682649958  0.9384894670435098  1.0000
  F   F7        1.0  0.5739784335324445  0.3551315030884457  0.4384894672796041  1.0000
  F   F8        1.0  0.9260215663430654  0.855131503003391  0.061510532744518266  1.0000
  S   S1        1.0  0.9324215939144471  0.15471429870202613  0.7537032496134246  1.0000
  S   S2        1.0  0.5675784053938145  0.6547142986169714  0.7462967507005221  1.0000
  S   S3        1.0  0.06757840530780207  0.8452857011278645  0.24629675059571196  1.0000
  S   S4        1.0  0.4324215947782105  0.3452857012129192  0.2537032495090982  1.0000
  I   I1        1.0  0.7322309791556142  0.64862132168532  0.566627384129014  1.0000
  I   I2        1.0  0.7677690211024235  0.14862132177037474  0.9333726161854166  1.0000
  I   I3        1.0  0.267769021016411  0.3513786781445706  0.4333726160806063  1.0000
  I   I4        1.0  0.23223097906960163  0.8513786780595158  0.06662738402420387  1.0000
