data_image0
_chemical_formula_structural       H138C106N12O10Cl2
_chemical_formula_sum              "H138 C106 N12 O10 Cl2"
_cell_length_a       10.123717867665842
_cell_length_b       10.849034464723177
_cell_length_c       21.72277928627069
_cell_angle_alpha    84.88875352139875
_cell_angle_beta     82.64838696355555
_cell_angle_gamma    81.717266582534

_space_group_name_H-M_alt    "P 1"
_space_group_IT_number       1

loop_
  _space_group_symop_operation_xyz
  'x, y, z'

loop_
  _atom_site_type_symbol
  _atom_site_label
  _atom_site_symmetry_multiplicity
  _atom_site_fract_x
  _atom_site_fract_y
  _atom_site_fract_z
  _atom_site_occupancy
  H   H1        1.0  0.9165474557114439  0.2056543528322908  0.020799185320151695  1.0000
  H   H2        1.0  0.0834525448208696  0.7943456476404075  0.9792008143299972  1.0000
  H   H3        1.0  0.8957005788618597  0.4579379473687858  0.009040540163549809  1.0000
  H   H4        1.0  0.10429942154875482  0.5420620530406792  0.9909594599519611  1.0000
  H   H5        1.0  0.9267423692615081  0.730783226993497  0.875360696653243  1.0000
  H   H6        1.0  0.0732576303158783  0.2692167724756297  0.12463930346256308  1.0000
  H   H7        1.0  0.016795993883499987  0.7160798982217695  0.7533669832840992  1.0000
  H   H8        1.0  0.983204005541193  0.28392010217905367  0.24663301682969274  1.0000
  H   H9        1.0  0.1278740980714047  0.4339048940355022  0.6321690081778406  1.0000
  H   H10       1.0  0.8721259024609087  0.566095106437196  0.3678309914723085  1.0000
  H   H11       1.0  0.14935395359883624  0.18175957312624283  0.6420427426127479  1.0000
  H   H12       1.0  0.8506460459785498  0.8182404263428837  0.3579572575030584  1.0000
  H   H13       1.0  0.09434531917159149  0.931856622693335  0.7913988282790216  1.0000
  H   H14       1.0  0.9056546804057947  0.06814337677579137  0.2086011718367846  1.0000
  H   H15       1.0  0.007238101411018245  0.9394683353320875  0.9143525239804599  1.0000
  H   H16       1.0  0.9927618989995963  0.060531665077377284  0.0856474761350512  1.0000
  H   H17       1.0  0.6594666675104078  0.6470691949211563  0.00966796167197438  1.0000
  H   H18       1.0  0.34053333206697844  0.3529308045479703  0.9903320384438317  1.0000
  H   H19       1.0  0.8259074819457297  0.6580828648933943  0.9735254137343683  1.0000
  H   H20       1.0  0.17409251846488474  0.3419171355160707  0.026474586381142622  1.0000
  H   H21       1.0  0.6904180410595476  0.7627967614360908  0.9475978837849813  1.0000
  H   H22       1.0  0.3095819596254588  0.23720323810491042  0.05240211586718177  1.0000
  H   H23       1.0  0.900268092302166  0.7408710506235359  0.6458568745049211  1.0000
  H   H24       1.0  0.09973190727522031  0.2591289488455907  0.3541431256108851  1.0000
  H   H25       1.0  0.04887958735181589  0.6360675016555548  0.6554015950739736  1.0000
  H   H26       1.0  0.9511204132114919  0.3639324978222134  0.34459840504355166  1.0000
  H   H27       1.0  0.9502526926373726  0.6166814097894523  0.5959575654261255  1.0000
  H   H28       1.0  0.04974730678732047  0.3833185906113711  0.40404243468766643  1.0000
  H   H29       1.0  0.6714278951220342  0.6740280041338508  0.6735523161182201  1.0000
  H   H30       1.0  0.32857210430265865  0.3259719962669725  0.32644768399557184  1.0000
  H   H31       1.0  0.7206736578386156  0.5533847509348995  0.6214767480932926  1.0000
  H   H32       1.0  0.27932634173877063  0.44661524853422707  0.37852325202251363  1.0000
  H   H33       1.0  0.6520401885510808  0.5169998413901264  0.6989632809740746  1.0000
  H   H34       1.0  0.3479598108736122  0.4830001590106969  0.30103671913971736  1.0000
  H   H35       1.0  0.001937095759461051  0.006090026774364066  0.6242255007941119  1.0000
  H   H36       1.0  0.9980629046511537  0.9939099736351008  0.37577449932139906  1.0000
  H   H37       1.0  0.10593320001828838  0.9941594908203745  0.6851417543203977  1.0000
  H   H38       1.0  0.8940668003923261  0.0058405095890906545  0.3148582457951133  1.0000
  H   H39       1.0  0.9823567681895551  0.8936381444652426  0.688666719066637  1.0000
  H   H40       1.0  0.017643231235137873  0.10636185593558067  0.3113332810471549  1.0000
  H   H41       1.0  0.7110108213169359  0.04117394566066835  0.0381633007384835  1.0000
  H   H42       1.0  0.28898917924637174  0.9588260538170997  0.9618366993790416  1.0000
  H   H43       1.0  0.7581579770882637  0.9171488921189681  0.9874988295957576  1.0000
  H   H44       1.0  0.24184202233642912  0.08285110828185523  0.012501170518034344  1.0000
  H   H45       1.0  0.8800941660610742  0.007651487210032935  0.004330472039951738  1.0000
  H   H46       1.0  0.11990583450223374  0.9923485122677352  0.9956695280775734  1.0000
  H   H47       1.0  0.5276229328538065  0.1307926071750786  0.974020447640638  1.0000
  H   H48       1.0  0.47237706755680814  0.8692073932343864  0.025979552474872908  1.0000
  H   H49       1.0  0.5606830471189905  0.16554336812240864  0.8924053334909297  1.0000
  H   H50       1.0  0.43931695245839547  0.8344566313467178  0.10759466662487648  1.0000
  H   H51       1.0  0.5755777036408046  0.007654041270859403  0.9230926809294889  1.0000
  H   H52       1.0  0.42442229676980986  0.9923459591386057  0.07690731918602195  1.0000
  H   H53       1.0  0.5384678270121503  0.5217855860421114  0.8738600622749658  1.0000
  H   H54       1.0  0.46153217355115755  0.47821441343565674  0.12613993784255928  1.0000
  H   H55       1.0  0.49676696328831926  0.5482905289839675  0.9532405055797198  1.0000
  H   H56       1.0  0.5032330371222954  0.45170947142549744  0.04675949453579112  1.0000
  H   H57       1.0  0.46710871494537093  0.7730559369129066  0.9315250521169914  1.0000
  H   H58       1.0  0.5328912854652436  0.2269440634965582  0.06847494799851937  1.0000
  H   H59       1.0  0.5436326824992633  0.7615473912777376  0.853812910155517  1.0000
  H   H60       1.0  0.4563673179113511  0.2384526091317273  0.14618708995999402  1.0000
  H   H61       1.0  0.28975270444906037  0.6439040784220175  0.9023674639448265  1.0000
  H   H62       1.0  0.7102472951283256  0.35609592104710897  0.09763253617097976  1.0000
  H   H63       1.0  0.2824738389391807  0.8029013114170921  0.8719102366390401  1.0000
  H   H64       1.0  0.7175261606382054  0.19709868805203445  0.12808976347676596  1.0000
  H   H65       1.0  0.2807657808526888  0.8889766683353271  0.6594396718528702  1.0000
  H   H66       1.0  0.7192342185720041  0.11102333206549618  0.3405603282609218  1.0000
  H   H67       1.0  0.263822924410509  0.8187710016241457  0.5553646162945407  1.0000
  H   H68       1.0  0.7361770751668771  0.18122899784498087  0.4446353838212655  1.0000
  H   H69       1.0  0.4052140398083995  0.5126681965602352  0.7313559323546652  1.0000
  H   H70       1.0  0.5947859607549084  0.487331802917533  0.2686440677628599  1.0000
  H   H71       1.0  0.4616469544410107  0.2794797087941981  0.6818341997477103  1.0000
  H   H72       1.0  0.5383530449836823  0.7205202916066252  0.31816580036608166  1.0000
  H   H73       1.0  0.3629290607051141  0.3486632619146442  0.45954726287853925  1.0000
  H   H74       1.0  0.6370709398581939  0.651336737563124  0.5404527372389858  1.0000
  H   H75       1.0  0.440377131138156  0.1366962829653671  0.504308045832357  1.0000
  H   H76       1.0  0.559622868286537  0.8633037174354563  0.4956919542814349  1.0000
  H   H77       1.0  0.5341289136918178  0.9571247610141616  0.7622868610625693  1.0000
  H   H78       1.0  0.46587108671879685  0.04287523939530346  0.23771313905294184  1.0000
  H   H79       1.0  0.5370185295306935  0.8641242843336298  0.6982254177954984  1.0000
  H   H80       1.0  0.46298147004669266  0.1358757151354967  0.30177458232030774  1.0000
  H   H81       1.0  0.7559856967492543  0.9014764811272403  0.6559636721094503  1.0000
  H   H82       1.0  0.24401430366136034  0.09852351928222444  0.34403632800606065  1.0000
  H   H83       1.0  0.7648212461212216  0.8927935033664345  0.7369060919075469  1.0000
  H   H84       1.0  0.23517875345616432  0.10720649610269216  0.2630939082082594  1.0000
  H   H85       1.0  0.6863288668004176  0.14389305907594865  0.7193134790756492  1.0000
  H   H86       1.0  0.31367113277696845  0.8561069403931778  0.2806865210401569  1.0000
  H   H87       1.0  0.7589280940234056  0.11829187339917105  0.642741834971435  1.0000
  H   H88       1.0  0.24107190653990224  0.881708126078597  0.35725816514609005  1.0000
  H   H89       1.0  0.3384299315333028  0.5630103145121901  0.43714905061730214  1.0000
  H   H90       1.0  0.6615700680130888  0.4369896859518665  0.5628509490311279  1.0000
  H   H91       1.0  0.31759667685051624  0.7100815876837117  0.4675570768993776  1.0000
  H   H92       1.0  0.6824033228485685  0.28991841184864797  0.5324429227510667  1.0000
  H   H93       1.0  0.1061338438771203  0.6764274792806507  0.42742776921448883  1.0000
  H   H94       1.0  0.8938661555475725  0.32357252112017243  0.5725722308993031  1.0000
  H   H95       1.0  0.09670038179772679  0.5385484076780618  0.4774211319835928  1.0000
  H   H96       1.0  0.903299617748665  0.4614515927859947  0.5225788676648373  1.0000
  H   H97       1.0  0.07782723961818161  0.6866623612499803  0.5092397706425937  1.0000
  H   H98       1.0  0.9221727609451263  0.31333763822778793  0.4907602294749313  1.0000
  H   H99       1.0  0.6469760733437951  0.3411321547634056  0.8896375973428517  1.0000
  H   H100      1.0  0.35302392620259654  0.6588678457006508  0.11036240230557831  1.0000
  H   H101      1.0  0.6987833284489043  0.4983801257525679  0.7983750309486195  1.0000
  H   H102      1.0  0.3012166709757886  0.5016198746482555  0.20162496916517245  1.0000
  H   H103      1.0  0.7661142559792096  0.3274047944164305  0.727084215673027  1.0000
  H   H104      1.0  0.23388574455310382  0.6725952060562677  0.2729157839771221  1.0000
  H   H105      1.0  0.7208358095827676  0.1638632072969608  0.8128216951054066  1.0000
  H   H106      1.0  0.2791641899636241  0.8361367931670958  0.18717830454302345  1.0000
  H   H107      1.0  0.999174866751665  0.3511573413077967  0.7849887073593101  1.0000
  H   H108      1.0  0.0008251327947265977  0.6488426591562599  0.21501129228912003  1.0000
  H   H109      1.0  0.9924809893120998  0.21237259664038524  0.8368412324660996  1.0000
  H   H110      1.0  0.0075190102652863185  0.7876274028287413  0.16315876764970663  1.0000
  H   H111      1.0  0.96662277233123  0.36367577446550714  0.8676325981069957  1.0000
  H   H112      1.0  0.03337722823207784  0.636324225012261  0.13236740201052943  1.0000
  H   H113      1.0  0.17815351846518993  0.4718887861636836  0.7826636325310898  1.0000
  H   H114      1.0  0.8218464811121962  0.5281112133054428  0.2173363675847164  1.0000
  H   H115      1.0  0.14952276710637905  0.48027007050104004  0.8649420359746657  1.0000
  H   H116      1.0  0.8504772324710073  0.5197299289680865  0.13505796414114052  1.0000
  H   H117      1.0  0.3147516974621986  0.42086610355435355  0.828489578568427  1.0000
  H   H118      1.0  0.6852483021151875  0.5791338959147728  0.17151042154737925  1.0000
  H   H119      1.0  0.17025687840413553  0.1417620934103434  0.8988621441421119  1.0000
  H   H120      1.0  0.8297431221591723  0.8582379060674247  0.10113785597541337  1.0000
  H   H121      1.0  0.3066170043558499  0.2321878495669363  0.8982049992654929  1.0000
  H   H122      1.0  0.6933829951905417  0.7678121508971201  0.10179500038293733  1.0000
  H   H123      1.0  0.1399190638479864  0.2893193734063739  0.9323980100072342  1.0000
  H   H124      1.0  0.8600809356984052  0.7106806270576824  0.06760198964119597  1.0000
  H   H125      1.0  0.21821529972126166  0.26689282283956284  0.7387071019221163  1.0000
  H   H126      1.0  0.7817847008420463  0.7331071766382053  0.26129289819540885  1.0000
  H   H127      1.0  0.35235931506313267  0.22086200992411012  0.7866157099929209  1.0000
  H   H128      1.0  0.647640685347482  0.7791379904853547  0.2133842901225902  1.0000
  H   H129      1.0  0.21614764356150637  0.12836299084845063  0.7897353797907459  1.0000
  H   H130      1.0  0.7838523561375788  0.8716370086839091  0.21026461985969822  1.0000
  H   H131      1.0  0.9604263175807558  0.8991583017656462  0.5328236536120187  1.0000
  H   H132      1.0  0.039573683104250995  0.10084169777535532  0.4671763460401446  1.0000
  H   H133      1.0  0.8852035642628742  0.8750889358665562  0.4656489948375632  1.0000
  H   H134      1.0  0.1147964363004337  0.12491106361121186  0.5343510052799619  1.0000
  H   H135      1.0  0.8081370308075027  0.8305919532695977  0.5412058715668245  1.0000
  H   H136      1.0  0.19186296960311183  0.16940804713986726  0.4587941285486864  1.0000
  H   H137      1.0  0.698366418534018  0.01242093514782625  0.5381220330206855  1.0000
  H   H138      1.0  0.30163358101237353  0.9875790653162303  0.4618779666277446  1.0000
  C   C1        1.0  0.767896887030104  0.23138279002109854  0.953183642042896  1.0000
  C   C2        1.0  0.23210311338051068  0.7686172103883664  0.046816358072614965  1.0000
  C   C3        1.0  0.8541445343634607  0.2673991539022608  0.9909321237167926  1.0000
  C   C4        1.0  0.14585546604715383  0.7326008465072041  0.009067876398718276  1.0000
  C   C5        1.0  0.8434245240971185  0.4003240837260237  0.9846724973759419  1.0000
  C   C6        1.0  0.15657547532757435  0.5996759166747996  0.015327502737850152  1.0000
  C   C7        1.0  0.7507663202798073  0.443408449497737  0.9430025779137093  1.0000
  C   C8        1.0  0.24923367914488578  0.5565915509030864  0.05699742220008252  1.0000
  C   C9        1.0  0.7015685335073508  0.5748981010648107  0.9180544279409916  1.0000
  C   C10       1.0  0.2984314659173422  0.42510189933601267  0.08194557217280037  1.0000
  C   C11       1.0  0.7844034572032889  0.6056953141094175  0.8569780255258589  1.0000
  C   C12       1.0  0.21559654237409726  0.39430468535970903  0.14302197458994736  1.0000
  C   C13       1.0  0.8896531626289623  0.6763225029904427  0.8434281394391283  1.0000
  C   C14       1.0  0.11034683679573057  0.32367749741038054  0.1565718606746636  1.0000
  C   C15       1.0  0.9365785544717161  0.6695627563616574  0.7789482966736034  1.0000
  C   C16       1.0  0.06342144507467552  0.3304372441023992  0.22105170297482662  1.0000
  C   C17       1.0  0.8587742616722619  0.5954420593954963  0.7541460999933621  1.0000
  C   C18       1.0  0.14122573775243108  0.4045579410053269  0.2458539001204299  1.0000
  C   C19       1.0  0.8615873274012372  0.5586049553447111  0.6882735634632413  1.0000
  C   C20       1.0  0.13841267316207062  0.44139504413305714  0.3117264366542839  1.0000
  C   C21       1.0  0.925693822911693  0.4246195584344667  0.6819632903510919  1.0000
  C   C22       1.0  0.07430617762062035  0.5753804420382316  0.31803670929905714  1.0000
  C   C23       1.0  0.05240507324392743  0.37835406465776616  0.6546571195986444  1.0000
  C   C24       1.0  0.9475949261807656  0.6216459357430573  0.34534288051514767  1.0000
  C   C25       1.0  0.06320994476234115  0.24565503272126699  0.6596245330465066  1.0000
  C   C26       1.0  0.9367900558009666  0.7543449667565011  0.3403754670710185  1.0000
  C   C27       1.0  0.9433654717915139  0.21254845440698167  0.6904837300874397  1.0000
  C   C28       1.0  0.05663452763317915  0.7874515459938416  0.30951627002635224  1.0000
  C   C29       1.0  0.9023250034563958  0.0844754035244267  0.7095444444181411  1.0000
  C   C30       1.0  0.09767499710691215  0.9155245959533416  0.29045555569938397  1.0000
  C   C31       1.0  0.9042202318208048  0.05378747871617265  0.7790579108353624  1.0000
  C   C32       1.0  0.09577976858980972  0.9462125216932923  0.22094208928014863  1.0000
  C   C33       1.0  0.0009191705245879169  0.9820873970545243  0.8116065812476636  1.0000
  C   C34       1.0  0.9990808298860268  0.01791260335494049  0.1883934188678472  1.0000
  C   C35       1.0  0.95538894358193  0.9864407367361768  0.8763147454589582  1.0000
  C   C36       1.0  0.04461105710307652  0.013559262804824532  0.12368525419320504  1.0000
  C   C37       1.0  0.831207873524358  0.06039275045041903  0.8823441161215327  1.0000
  C   C38       1.0  0.16879212605302815  0.9396072490187074  0.11765588399427343  1.0000
  C   C39       1.0  0.7413362857633977  0.10262458824598673  0.9400581883057002  1.0000
  C   C40       1.0  0.25866371464721677  0.8973754121634783  0.05994181180981082  1.0000
  C   C41       1.0  0.7202595181713457  0.666283087813475  0.9652006550842079  1.0000
  C   C42       1.0  0.2797404812533472  0.33371691258734837  0.03479934502958406  1.0000
  C   C43       1.0  0.9455999892758736  0.6431696070264924  0.6438240497196112  1.0000
  C   C44       1.0  0.054400010423211256  0.35683039250586734  0.3561759499308332  1.0000
  C   C45       1.0  0.7176112965676001  0.5766608090793717  0.669778036728371  1.0000
  C   C46       1.0  0.28238870300978597  0.4233391903897547  0.33022196338743515  1.0000
  C   C47       1.0  0.004190332632995189  0.9886960408554148  0.6746545846674132  1.0000
  C   C48       1.0  0.9958096679303128  0.011303958622353338  0.32534541545011186  1.0000
  C   C49       1.0  0.7749536285075433  0.011553716588137754  0.9958754161203242  1.0000
  C   C50       1.0  0.22504637205576447  0.9884462828896304  0.00412458399720098  1.0000
  C   C51       1.0  0.5922592528040597  0.10215973573177507  0.9317612899433384  1.0000
  C   C52       1.0  0.4077407466206332  0.8978402646690482  0.06823871017045369  1.0000
  C   C53       1.0  0.5505633748764319  0.5840872453417372  0.9095129306718385  1.0000
  C   C54       1.0  0.4494366255341826  0.4159127550677278  0.09048706944367242  1.0000
  C   C55       1.0  0.48151807876575287  0.714778448946072  0.8916169835038887  1.0000
  C   C56       1.0  0.5184819216448617  0.285221551463393  0.10838301661162214  1.0000
  C   C57       1.0  0.343523192356155  0.7108968740255855  0.8717573772168502  1.0000
  C   C58       1.0  0.6564768071902368  0.28910312643847097  0.1282426224315798  1.0000
  C   C59       1.0  0.33153175712441296  0.7565814505986684  0.7629302533723111  1.0000
  C   C60       1.0  0.6684682424529732  0.24341854887045813  0.23706974674349512  1.0000
  C   C61       1.0  0.3372479758028593  0.7053110305384325  0.7018491319216877  1.0000
  C   C62       1.0  0.6627520246077552  0.29468896987103255  0.29815086819382314  1.0000
  C   C63       1.0  0.3022355655230375  0.7902650881512272  0.6513777568682473  1.0000
  C   C64       1.0  0.697764434887577  0.20973491225823782  0.34862224324726365  1.0000
  C   C65       1.0  0.2937108103946775  0.7512759905824647  0.5931145328526743  1.0000
  C   C66       1.0  0.7062891890300155  0.24872400981835846  0.40688546726111763  1.0000
  C   C67       1.0  0.324427202299768  0.6230967255225394  0.5857377944047256  1.0000
  C   C68       1.0  0.6755727981108465  0.37690327488692554  0.41426220571078526  1.0000
  C   C69       1.0  0.36648102689296536  0.5360676826637597  0.6349993774671733  1.0000
  C   C70       1.0  0.6335189725317276  0.4639323177370637  0.36500062264661876  1.0000
  C   C71       1.0  0.37220290944367523  0.577501963989069  0.6933739396397594  1.0000
  C   C72       1.0  0.6277970909669394  0.4224980364203961  0.30662606047575164  1.0000
  C   C73       1.0  0.4356377975947181  0.2951043000228245  0.6344094872582946  1.0000
  C   C74       1.0  0.5643622030902884  0.7048956995181769  0.36559051239386864  1.0000
  C   C75       1.0  0.39236045162969546  0.4147159398152316  0.6098404863310156  1.0000
  C   C76       1.0  0.6076395477949973  0.5852840605855918  0.3901595137827764  1.0000
  C   C77       1.0  0.3637410204070208  0.4336912079760798  0.5466484141376863  1.0000
  C   C78       1.0  0.6362589801252925  0.5663087924966185  0.4533515855124628  1.0000
  C   C79       1.0  0.38066672092556303  0.3341735212275069  0.5082228914553943  1.0000
  C   C80       1.0  0.6193332786518231  0.6658264782416198  0.4917771086604118  1.0000
  C   C81       1.0  0.42467114555145896  0.21542860052476615  0.5334699471230602  1.0000
  C   C82       1.0  0.5753288551335475  0.7845713990162353  0.46653005252910296  1.0000
  C   C83       1.0  0.45046548633920114  0.19476239472965068  0.5963325740461694  1.0000
  C   C84       1.0  0.5495345140714134  0.8052376056798143  0.40366742606934164  1.0000
  C   C85       1.0  0.5005927468057654  0.06772444991478845  0.620752359618762  1.0000
  C   C86       1.0  0.49940725261892766  0.9322755504860347  0.37924764049503007  1.0000
  C   C87       1.0  0.5677369834233882  0.9488247803161738  0.7126968921959551  1.0000
  C   C88       1.0  0.432263016153998  0.05117521915295273  0.287303107919851  1.0000
  C   C89       1.0  0.718806239284869  0.9491933484883686  0.6984810229226021  1.0000
  C   C90       1.0  0.28119376112574557  0.05080665192109638  0.3015189771929089  1.0000
  C   C91       1.0  0.7602759850273307  0.08045540776252767  0.6914251628381197  1.0000
  C   C92       1.0  0.23972401553597694  0.9195445917152405  0.3085748372794054  1.0000
  C   C93       1.0  0.28285063907307467  0.6180998025256073  0.47442693733073044  1.0000
  C   C94       1.0  0.7171493613375399  0.3819001978838578  0.5255730627847804  1.0000
  C   C95       1.0  0.1319347943514888  0.6303497369790099  0.47213769393318133  1.0000
  C   C96       1.0  0.8680652063335178  0.36965026256199157  0.5278623057189819  1.0000
  C   C97       1.0  0.019626057570855136  0.30687989750090616  0.8305680844976179  1.0000
  C   C98       1.0  0.9803739429614582  0.6931201029717919  0.1694319151525312  1.0000
  C   C99       1.0  0.20615851836635174  0.42733518798887  0.8272039487116262  1.0000
  C   C100      1.0  0.793841482196956  0.5726648114888981  0.17279605140589893  1.0000
  C   C101      1.0  0.1988346809858624  0.23582402420993465  0.8955051519350185  1.0000
  C   C102      1.0  0.8011653184388304  0.7641759761908886  0.10449484817877368  1.0000
  C   C103      1.0  0.2449492773618635  0.22261572276767372  0.7834671230833706  1.0000
  C   C104      1.0  0.7550507220628295  0.7773842776331497  0.2165328770304213  1.0000
  C   C105      1.0  0.8639606738582744  0.9011807763275467  0.5141715923330955  1.0000
  C   C106      1.0  0.13603932655234013  0.0988192240819183  0.4858284077824153  1.0000
  N   N1        1.0  0.7068896527629593  0.339403526656849  0.9244942194747853  1.0000
  N   N2        1.0  0.2931103476476551  0.660596473752616  0.07550578064072565  1.0000
  N   N3        1.0  0.7673875514834897  0.5572040652637603  0.8022947109268427  1.0000
  N   N4        1.0  0.2326124480938965  0.4427959342053661  0.19770528918896357  1.0000
  N   N5        1.0  0.8606997115537627  0.3225503133195568  0.7032468419546031  1.0000
  N   N6        1.0  0.1393002890095452  0.6774496861582113  0.296753158162922  1.0000
  N   N7        1.0  0.8020683862613295  0.10043734588189114  0.8228500572011191  1.0000
  N   N8        1.0  0.19793161414928515  0.8995626545275739  0.1771499429143918  1.0000
  N   N9        1.0  0.32369262243982144  0.5596484737530758  0.5332789010007714  1.0000
  N   N10       1.0  0.6763073781234862  0.4403515257246923  0.4667210991167538  1.0000
  N   N11       1.0  0.16750985996679602  0.29829189917715776  0.834100968095565  1.0000
  N   N12       1.0  0.8324901405965117  0.7017081003006104  0.16589903202196002  1.0000
  O   O1        1.0  0.35437995357708924  0.6668051369213315  0.8098146090034546  1.0000
  O   O2        1.0  0.6456200459693023  0.3331948635427249  0.1901853906449756  1.0000
  O   O3        1.0  0.30580564002276955  0.8685062122438365  0.7716939101487973  1.0000
  O   O4        1.0  0.6941943605405381  0.13149378723393162  0.2283060899687278  1.0000
  O   O5        1.0  0.4909616992197636  0.05738393803646696  0.6834441959605301  1.0000
  O   O6        1.0  0.509038301190851  0.9426160623729979  0.31655580415498086  1.0000
  O   O7        1.0  0.5489030257190219  0.9801325002584077  0.588428812527907  1.0000
  O   O8        1.0  0.4510969737056711  0.01986750014241561  0.4115711875858851  1.0000
  O   O9        1.0  0.7886420959651768  0.023290499389046537  0.5173935215798602  1.0000
  O   O10       1.0  0.21135790361220938  0.9767095000800801  0.482606478535946  1.0000
  Cl  Cl1       1.0  0.5706591971404447  0.33620006692031895  0.795256173191205  1.0000
  Cl  Cl2       1.0  0.4293408034228631  0.6637999325574492  0.20474382692632015  1.0000
