data_image0
_chemical_formula_structural       H26C28N4O10S2
_chemical_formula_sum              "H26 C28 N4 O10 S2"
_cell_length_a       5.4558828014230745
_cell_length_b       8.020261503117162
_cell_length_c       15.861852664284019
_cell_angle_alpha    81.50905422072566
_cell_angle_beta     86.87242628392679
_cell_angle_gamma    77.71181170036114

_space_group_name_H-M_alt    "P 1"
_space_group_IT_number       1

loop_
  _space_group_symop_operation_xyz
  'x, y, z'

loop_
  _atom_site_type_symbol
  _atom_site_label
  _atom_site_symmetry_multiplicity
  _atom_site_fract_x
  _atom_site_fract_y
  _atom_site_fract_z
  _atom_site_occupancy
  H   H1        1.0  0.40786793958063366  0.10016284399904124  0.19071769098234698  1.0000
  H   H2        1.0  0.5921320615680493  0.8998371561347206  0.809282309132792  1.0000
  H   H3        1.0  0.3032713707582807  0.9725814321509697  0.4875287718244439  1.0000
  H   H4        1.0  0.6967286285347891  0.027418567971846212  0.5124712277040203  1.0000
  H   H5        1.0  0.5407289815601856  0.7972190370454213  0.5294645250772155  1.0000
  H   H6        1.0  0.45927101775522533  0.20278096308116333  0.4705354750809372  1.0000
  H   H7        1.0  0.11703467348303806  0.7675412729695135  0.41541247447292623  1.0000
  H   H8        1.0  0.882965327665645  0.23245872716424848  0.5845875256422128  1.0000
  H   H9        1.0  0.36816405660979973  0.5980212468842868  0.4497132380395616  1.0000
  H   H10       1.0  0.6318359445388831  0.40197875324947513  0.5502867620755775  1.0000
  H   H11       1.0  0.18683659716481685  0.00755563030847263  0.325587573732012  1.0000
  H   H12       1.0  0.813163403983866  0.9924443698252893  0.6744124263831269  1.0000
  H   H13       1.0  0.7565618570948947  0.5750876584764013  0.3850008933186912  1.0000
  H   H14       1.0  0.24343814405378847  0.42491234165736047  0.6149991067964479  1.0000
  H   H15       1.0  0.0026900593159454238  0.6476763121294223  0.2560888760112251  1.0000
  H   H16       1.0  0.9973099403988226  0.35232368670852054  0.7439111242374394  1.0000
  H   H17       1.0  0.10813884356964984  0.7967901237666564  0.7281225703071427  1.0000
  H   H18       1.0  0.8918611557234202  0.2032098763561595  0.27187742922132163  1.0000
  H   H19       1.0  0.7164098993077777  0.7300864224368373  0.9078286222351654  1.0000
  H   H20       1.0  0.28359010184090533  0.2699135776969246  0.0921713778799737  1.0000
  H   H21       1.0  0.43701371628212693  0.39279301920819765  0.9508392298517429  1.0000
  H   H22       1.0  0.5629862848665561  0.6072069809255642  0.04916077026339628  1.0000
  H   H23       1.0  0.19621699687490812  0.38759957099861253  0.35085592362632534  1.0000
  H   H24       1.0  0.8037830024405027  0.6124004291279722  0.6491440765318274  1.0000
  H   H25       1.0  0.40549567775580514  0.4163482599843058  0.2786733025602749  1.0000
  H   H26       1.0  0.594504321537265  0.5836517401385101  0.7213266969681893  1.0000
  C   C1        1.0  0.17489527277949446  0.7941647915140212  0.5841681082231855  1.0000
  C   C2        1.0  0.8251047283691885  0.20583520861974058  0.41583189189195346  1.0000
  C   C3        1.0  0.49101522132944697  0.9825046165398744  0.23098124692616728  1.0000
  C   C4        1.0  0.5089847798192358  0.01749538359388738  0.7690187531889717  1.0000
  C   C5        1.0  0.8392956957444969  0.9235373002595945  0.12640593414965856  1.0000
  C   C6        1.0  0.16070430357091386  0.07646269986699024  0.8735940660084942  1.0000
  C   C7        1.0  0.7201315126558032  0.8788960983724449  0.20844987080299215  1.0000
  C   C8        1.0  0.27986848663726666  0.12110390175037095  0.7915501287254721  1.0000
  C   C9        1.0  0.34600007181064146  0.8326781917977112  0.5078122647264145  1.0000
  C   C10       1.0  0.6539999279041266  0.16732180704023178  0.49218773552225  1.0000
  C   C11       1.0  0.3132902377216385  0.7380055530849091  0.4343649515651406  1.0000
  C   C12       1.0  0.6867097615937724  0.26199444704167557  0.5656350485930122  1.0000
  C   C13       1.0  0.12030691251100858  0.9457329774265248  0.0028170902645569666  1.0000
  C   C14       1.0  0.8796930868044022  0.054267022700059876  0.9971829098935957  1.0000
  C   C15       1.0  0.36750237889194454  0.9347007392020023  0.3056589148596638  1.0000
  C   C16       1.0  0.6324976222343976  0.06529926092799086  0.6943410846257868  1.0000
  C   C17       1.0  0.6889780812485193  0.6908345996150754  0.34029375391348116  1.0000
  C   C18       1.0  0.3110219180668915  0.30916540051150926  0.6597062462446714  1.0000
  C   C19       1.0  0.8218296533507488  0.7334349991431808  0.2663032504244584  1.0000
  C   C20       1.0  0.17817034596466208  0.26656500098340397  0.7336967497336944  1.0000
  C   C21       1.0  0.8411452670996189  0.6301443607443389  0.9480173738561564  1.0000
  C   C22       1.0  0.1588547322157919  0.3698556393822459  0.05198262630199633  1.0000
  C   C23       1.0  0.24551135899178844  0.4379704682364563  0.9730917096538964  1.0000
  C   C24       1.0  0.7544886403236224  0.5620295318901284  0.026908290504256416  1.0000
  C   C25       1.0  0.0881001715246698  0.5685401009762766  0.9206690432786568  1.0000
  C   C26       1.0  0.9118998277684002  0.4314598991465393  0.07933095624980738  1.0000
  C   C27       1.0  0.19230267430437106  0.6383690431410004  0.8372543806847269  1.0000
  C   C28       1.0  0.8076973250110396  0.36163095698558423  0.1627456194734258  1.0000
  N   N1        1.0  0.7242546272087759  0.04223087871361865  0.06575625395181217  1.0000
  N   N2        1.0  0.2757453721066349  0.957769121412966  0.9342437462063407  1.0000
  N   N3        1.0  0.4632887354289625  0.78896930667178  0.3581011712583073  1.0000
  N   N4        1.0  0.5367112638864484  0.21103069345480477  0.6418988288998454  1.0000
  O   O1        1.0  0.18985331577554895  0.8740122281784268  0.6476311568529735  1.0000
  O   O2        1.0  0.8101466835398619  0.12598777194815772  0.35236884330517915  1.0000
  O   O3        1.0  0.03187235579969497  0.6914923826396819  0.5799531038932824  1.0000
  O   O4        1.0  0.968127643515716  0.3085076174869027  0.4200468962648704  1.0000
  O   O5        1.0  0.028823023940472862  0.7523746444755894  0.7888927394180558  1.0000
  O   O6        1.0  0.9711769771858692  0.2476253556544037  0.21110726006739478  1.0000
  O   O7        1.0  0.41657035545539056  0.58994590341245  0.8175011202039697  1.0000
  O   O8        1.0  0.5834296438376793  0.4100540967103659  0.1824988793244945  1.0000
  O   O9        1.0  0.30699276632441624  0.46595020082787925  0.3262471083653399  1.0000
  O   O10       1.0  0.6930072348242667  0.5340497993058825  0.6737528917497992  1.0000
  S   S1        1.0  0.14746799959398527  0.8207192148841241  0.10102060423231153  1.0000
  S   S2        1.0  0.8525319997214256  0.17928078524246066  0.8989793959258411  1.0000
