data_image0
_chemical_formula_structural       H64C58N4O6S4Cl4
_chemical_formula_sum              "H64 C58 N4 O6 S4 Cl4"
_cell_length_a       8.900911699217627
_cell_length_b       10.848535329676777
_cell_length_c       15.559144126711752
_cell_angle_alpha    73.09192909745059
_cell_angle_beta     83.43139995635869
_cell_angle_gamma    83.37171395685287

_space_group_name_H-M_alt    "P 1"
_space_group_IT_number       1

loop_
  _space_group_symop_operation_xyz
  'x, y, z'

loop_
  _atom_site_type_symbol
  _atom_site_label
  _atom_site_symmetry_multiplicity
  _atom_site_fract_x
  _atom_site_fract_y
  _atom_site_fract_z
  _atom_site_occupancy
  H   H1        1.0  0.8280743772427941  0.4326268401554103  0.27311020622510607  1.0000
  H   H2        1.0  0.17192562264267186  0.5673731596975584  0.7268897939166162  1.0000
  H   H3        1.0  0.29097271068463415  0.39801181257343105  0.16897440892835727  1.0000
  H   H4        1.0  0.7090272890670242  0.6019881882055946  0.8310255912180827  1.0000
  H   H5        1.0  0.10394700159734949  0.3596146030167617  0.34723145907137815  1.0000
  H   H6        1.0  0.8960529983853651  0.6403853971147742  0.6527685403961725  1.0000
  H   H7        1.0  0.8054739574446959  0.08798563085061403  0.1458520178486489  1.0000
  H   H8        1.0  0.19452604253801883  0.9120143692809217  0.8541479816189017  1.0000
  H   H9        1.0  0.3682653052365972  0.14529145154210824  0.28665479370374425  1.0000
  H   H10       1.0  0.631734694648869  0.8547085483108604  0.713345206437978  1.0000
  H   H11       1.0  0.49886990254549957  0.3979020410993024  0.3710779874326711  1.0000
  H   H12       1.0  0.5011300973399664  0.6020979587536665  0.6289220127090513  1.0000
  H   H13       1.0  0.4528783652029102  0.7329340083118312  0.32445214519498916  1.0000
  H   H14       1.0  0.5471216358055918  0.26706599154286226  0.6755478549477218  1.0000
  H   H15       1.0  0.435296698845091  0.5772765600107115  0.40127248561132456  1.0000
  H   H16       1.0  0.5647033010403749  0.4227234398422572  0.598727514530398  1.0000
  H   H17       1.0  0.27728887561940074  0.694858078919252  0.3857888039243924  1.0000
  H   H18       1.0  0.7227111242660653  0.3051419209337165  0.6142111962173301  1.0000
  H   H19       1.0  0.21274295193592402  0.8817226536522911  0.20978818129484667  1.0000
  H   H20       1.0  0.787257047949542  0.11827734620067751  0.7902118188468759  1.0000
  H   H21       1.0  0.07558992524493748  0.9580764417786979  0.07089226504291417  1.0000
  H   H22       1.0  0.9244100746405285  0.04192355807427073  0.9291077350988083  1.0000
  H   H23       1.0  0.02807945809415985  0.8036838633761347  0.9872139179454069  1.0000
  H   H24       1.0  0.9719205417913063  0.19631613647683394  0.012786082196315463  1.0000
  H   H25       1.0  0.12349992982685877  0.5723663611691856  0.03785314258462649  1.0000
  H   H26       1.0  0.8765000700586074  0.4276336386837831  0.962146857557096  1.0000
  H   H27       1.0  0.5007936224155207  0.09923688921330241  0.5868323537137969  1.0000
  H   H28       1.0  0.499206377567194  0.9007631109182335  0.41316764575375364  1.0000
  H   H29       1.0  0.5666894739835007  0.24115902344834003  0.5090430024069396  1.0000
  H   H30       1.0  0.4333105259019653  0.7588409764046288  0.4909569977347829  1.0000
  H   H31       1.0  0.5794829069812752  0.09610880013100324  0.47761533194941613  1.0000
  H   H32       1.0  0.4205170929041906  0.9038911997219654  0.5223846681923063  1.0000
  H   H33       1.0  0.25887628022581777  0.995675789801527  0.6518329295397437  1.0000
  H   H34       1.0  0.7411237196596482  0.004324210051441692  0.34816707060197877  1.0000
  H   H35       1.0  0.9882152230411122  0.9556781208557199  0.6955812360192705  1.0000
  H   H36       1.0  0.011784776844353802  0.04432187899724883  0.3044187641224519  1.0000
  H   H37       1.0  0.7884312749021931  0.07175938893983105  0.595596500674037  1.0000
  H   H38       1.0  0.2115687249832729  0.9282406109131376  0.40440349946768545  1.0000
  H   H39       1.0  0.8546237159783704  0.23207369490133029  0.4485751550815689  1.0000
  H   H40       1.0  0.14537628390709564  0.7679263049516383  0.5514248450601535  1.0000
  H   H41       1.0  0.48801813336617816  0.1807054486701828  0.9227663034891687  1.0000
  H   H42       1.0  0.5119818665192878  0.8192945511827857  0.07723369665255371  1.0000
  H   H43       1.0  0.2846000306531124  0.1874449484209151  0.9521651903508023  1.0000
  H   H44       1.0  0.7153999704526383  0.8125550517123453  0.04783480911773689  1.0000
  H   H45       1.0  0.4128507773055529  0.0884981186386795  0.03181010267455458  1.0000
  H   H46       1.0  0.5871492225799132  0.9115018812142891  0.9681898974671679  1.0000
  H   H47       1.0  0.44420216622839304  0.4341403794671701  0.869261433647463  1.0000
  H   H48       1.0  0.5557978336570729  0.5658596203857984  0.1307385664942595  1.0000
  H   H49       1.0  0.36504625651710493  0.5296517509887132  0.9429323025166796  1.0000
  H   H50       1.0  0.6349537444913971  0.47034824886598026  0.05706769762603133  1.0000
  H   H51       1.0  0.24676071970354624  0.4283501345654474  0.9113076015922565  1.0000
  H   H52       1.0  0.7532392801819198  0.5716498652875214  0.08869239854946583  1.0000
  H   H53       1.0  0.7687535819811573  0.620218310923761  0.4668944830175449  1.0000
  H   H54       1.0  0.23124641790430875  0.3797816889292076  0.5331055171241776  1.0000
  H   H55       1.0  0.8625454926012968  0.4592900816636345  0.4858118326912851  1.0000
  H   H56       1.0  0.13745450728416936  0.5407099181893341  0.5141881674504374  1.0000
  H   H57       1.0  0.707629504863773  0.5079823285232024  0.41441117204250055  1.0000
  H   H58       1.0  0.29237049502169316  0.49201767132976626  0.585588828099222  1.0000
  H   H59       1.0  0.7854438030781689  0.7929404764133431  0.304119970101644  1.0000
  H   H60       1.0  0.21455619680729693  0.20705952343962564  0.6958800300400785  1.0000
  H   H61       1.0  0.7193961684496114  0.6707738278208935  0.26215130388963803  1.0000
  H   H62       1.0  0.28060383143585454  0.32922617203207516  0.7378486962520845  1.0000
  H   H63       1.0  0.886795977736557  0.7525647883331109  0.20792300498579422  1.0000
  H   H64       1.0  0.11320402224615762  0.2474352117984249  0.7920769944817563  1.0000
  C   C1        1.0  0.6778984937784632  0.3179065502064812  0.2544106737450168  1.0000
  C   C2        1.0  0.3221015061070028  0.6820934496464875  0.7455893263967056  1.0000
  C   C3        1.0  0.775805746555856  0.24722324839595852  0.20472685066772575  1.0000
  C   C4        1.0  0.22419425332961004  0.7527767514570102  0.7952731494739966  1.0000
  C   C5        1.0  0.7283783089308733  0.14174389165035026  0.18414189328739874  1.0000
  C   C6        1.0  0.27162169095459265  0.8582561082026183  0.8158581068543237  1.0000
  C   C7        1.0  0.5822093578629395  0.10592175552082678  0.2147674276743321  1.0000
  C   C8        1.0  0.4177906419859675  0.8940782455367661  0.7852325717979362  1.0000
  C   C9        1.0  0.4822368140812459  0.17467168553190443  0.2633828279395283  1.0000
  C   C10       1.0  0.5177631859014689  0.8253283145996313  0.7366171715280223  1.0000
  C   C11       1.0  0.5290001969097137  0.28144576313917646  0.28232052615805947  1.0000
  C   C12       1.0  0.4709998030730011  0.7185542369923593  0.717679473309491  1.0000
  C   C13       1.0  0.42417593469364046  0.36221960809245735  0.333449757969133  1.0000
  C   C14       1.0  0.5758240651918256  0.6377803917605114  0.6665502421725894  1.0000
  C   C15       1.0  0.3505591645668466  0.4814455790062306  0.27057340497334254  1.0000
  C   C16       1.0  0.6494408354158681  0.5185544211253051  0.7294265944942081  1.0000
  C   C17       1.0  0.3314145710643197  0.6073221330085439  0.27737240501397564  1.0000
  C   C18       1.0  0.668585428918395  0.39267786712299185  0.7226275944535749  1.0000
  C   C19       1.0  0.3768656269392442  0.6548232388093252  0.35059755931952247  1.0000
  C   C20       1.0  0.623134372812414  0.3451767619697006  0.6494024408269174  1.0000
  C   C21       1.0  0.2524208056190676  0.6838202105822964  0.20118705947470047  1.0000
  C   C22       1.0  0.7475791942663984  0.3161797892706723  0.7988129406670219  1.0000
  C   C23       1.0  0.19714324307880163  0.8148733512794398  0.17169782938652892  1.0000
  C   C24       1.0  0.8028567568066645  0.18512664857352884  0.8283021707551934  1.0000
  C   C25       1.0  0.1189215786708588  0.8567607231892079  0.09426773425122104  1.0000
  C   C26       1.0  0.8810784210807995  0.1432392775898179  0.905732265895219  1.0000
  C   C27       1.0  0.09263597563972988  0.7698954977278969  0.046409062666434894  1.0000
  C   C28       1.0  0.9073640242457363  0.23010450212507177  0.9535909374752876  1.0000
  C   C29       1.0  0.14600756860926645  0.6397543480338548  0.07391679531276912  1.0000
  C   C30       1.0  0.8539924313734482  0.3602456520976811  0.9260832041547815  1.0000
  C   C31       1.0  0.22667264622024869  0.5980020960644664  0.1508018058712416  1.0000
  C   C32       1.0  0.7733273536652174  0.40199790378850225  0.8491981942704808  1.0000
  C   C33       1.0  0.3163079372686509  0.28171759820178566  0.402692437666853  1.0000
  C   C34       1.0  0.683692062616815  0.7182824016511832  0.5973075624748694  1.0000
  C   C35       1.0  0.3520743092636852  0.1911119805569176  0.48284061550671226  1.0000
  C   C36       1.0  0.6479256906217808  0.808888019296051  0.5171593846350101  1.0000
  C   C37       1.0  0.5068661100014759  0.15510252715100747  0.5154639003845597  1.0000
  C   C38       1.0  0.49313388988399015  0.8448974727019611  0.4845360997571627  1.0000
  C   C39       1.0  0.2115088465368535  0.14170194337172531  0.5267585573919857  1.0000
  C   C40       1.0  0.7884911534458611  0.8582980567598102  0.4732414420755649  1.0000
  C   C41       1.0  0.17180282158566249  0.04983883494927571  0.6084930148713436  1.0000
  C   C42       1.0  0.8281971782998034  0.9501611649036931  0.3915069852703788  1.0000
  C   C43       1.0  0.01992105347390887  0.027538386722570862  0.632670130824205  1.0000
  C   C44       1.0  0.9800789464115571  0.9724616131303977  0.3673298693175176  1.0000
  C   C45       1.0  0.9060334245384045  0.09369912916419666  0.5759304130843429  1.0000
  C   C46       1.0  0.09396657534706153  0.9063008706887722  0.4240695870573795  1.0000
  C   C47       1.0  0.9417026167929107  0.18377745810828006  0.4938667902857721  1.0000
  C   C48       1.0  0.05829738421559137  0.8162225417464134  0.5061332098569389  1.0000
  C   C49       1.0  0.0944142669457417  0.2071985210176877  0.47009170458107413  1.0000
  C   C50       1.0  0.9055857329397242  0.792801478835281  0.5299082955606483  1.0000
  C   C51       1.0  0.3971017592686902  0.17776129884544464  0.977043563136248  1.0000
  C   C52       1.0  0.6028982407140245  0.8222387012860911  0.022956436331302718  1.0000
  C   C53       1.0  0.361402238830699  0.43840925962457483  0.9264648571611678  1.0000
  C   C54       1.0  0.638597761054767  0.561590740228394  0.07353514298055479  1.0000
  C   C55       1.0  0.8045750888026187  0.5399670964693168  0.4372929568515552  1.0000
  C   C56       1.0  0.19542491118009586  0.4600329036622189  0.5627070426159954  1.0000
  C   C57       1.0  0.818330067306693  0.7155318097464743  0.2716760369446603  1.0000
  C   C58       1.0  0.1816699325787729  0.2844681901064944  0.7283239631970622  1.0000
  N   N1        1.0  0.28845339010554283  0.47682812572024375  0.19401202768756062  1.0000
  N   N2        1.0  0.7115466097799231  0.5231718741327249  0.8059879724541619  1.0000
  N   N3        1.0  0.16247020540041637  0.289433152005589  0.39451521692468633  1.0000
  N   N4        1.0  0.8375297944850496  0.7105668478473796  0.6054847832170361  1.0000
  O   O1        1.0  0.7155523590978585  0.4210069385318008  0.27606982439046823  1.0000
  O   O2        1.0  0.2844476407876075  0.578993061321168  0.7239301757512541  1.0000
  O   O3        1.0  0.2786395079648484  0.3044620789238119  0.09427014377886496  1.0000
  O   O4        1.0  0.7213604918840586  0.6955379221337811  0.9057298556934033  1.0000
  O   O5        1.0  0.9709050899130575  0.48634331412873627  0.2967386156068891  1.0000
  O   O6        1.0  0.029094909972408538  0.5136566857242325  0.7032613845348334  1.0000
  S   S1        1.0  0.4118195460197515  0.3088926173183555  0.02364192729856489  1.0000
  S   S2        1.0  0.5881804537319066  0.6911073834606705  0.976358072847875  1.0000
  S   S3        1.0  0.9403223768719327  0.5951745743505921  0.3426426579985455  1.0000
  S   S4        1.0  0.05967762297697423  0.4048254267070009  0.6573573414737227  1.0000
  Cl  Cl1       1.0  0.9579716879585034  0.2907790903884153  0.16872648682344155  1.0000
  Cl  Cl2       1.0  0.04202831202421118  0.7092209097431205  0.831273512644109  1.0000
  Cl  Cl3       1.0  0.5241399465769826  0.9697121064216827  0.194916871334334  1.0000
  Cl  Cl4       1.0  0.4758600533084834  0.030287893431286007  0.8050831288073884  1.0000
