data_image0
_chemical_formula_structural       H80C76N8O20
_chemical_formula_sum              "H80 C76 N8 O20"
_cell_length_a       12.139647463029675
_cell_length_b       6.310629228453918
_cell_length_c       20.877567769058746
_cell_angle_alpha    90.0
_cell_angle_beta     95.54431656756229
_cell_angle_gamma    90.0

_space_group_name_H-M_alt    "P 1"
_space_group_IT_number       1

loop_
  _space_group_symop_operation_xyz
  'x, y, z'

loop_
  _atom_site_type_symbol
  _atom_site_label
  _atom_site_symmetry_multiplicity
  _atom_site_fract_x
  _atom_site_fract_y
  _atom_site_fract_z
  _atom_site_occupancy
  H   H1        1.0  0.4172987087658668  0.25866984747572075  0.32560550361416113  1.0000
  H   H2        1.0  0.5827012908999177  0.758669846805905  0.1743944966616219  1.0000
  H   H3        1.0  0.5827012911936487  0.7413301527692758  0.674394496597237  1.0000
  H   H4        1.0  0.4172987090595977  0.2413301534390916  0.8256055035497764  1.0000
  H   H5        1.0  0.8290328374786116  0.2792089435480398  0.20304432750889384  1.0000
  H   H6        1.0  0.17096716300048853  0.7792089428782241  0.29695567232546005  1.0000
  H   H7        1.0  0.17096716246672208  0.7207910566969568  0.7969556722227948  1.0000
  H   H8        1.0  0.8290328369448451  0.22079105578214447  0.7030443274062288  1.0000
  H   H9        1.0  0.07404144674260012  0.8134925130528904  0.5923474261128813  1.0000
  H   H10       1.0  0.9259585534964643  0.31349251372270615  0.9076525735544225  1.0000
  H   H11       1.0  0.9259585532027335  0.1865074871921062  0.40765257361880736  1.0000
  H   H12       1.0  0.07404144644886915  0.6865074865222904  0.09234742617726621  1.0000
  H   H13       1.0  0.5406802374374399  0.04767983177387796  0.43798589824491463  1.0000
  H   H14       1.0  0.45931976221416276  0.5476798311040623  0.062014101551159016  1.0000
  H   H15       1.0  0.45931976252207557  0.9523201684711187  0.5620141019664836  1.0000
  H   H16       1.0  0.5406802377311708  0.45232016755630633  0.9379858981805298  1.0000
  H   H17       1.0  0.6625722172026374  0.16361668268268154  0.24952469978704683  1.0000
  H   H18       1.0  0.3374277832764627  0.6636166820128657  0.250475300047307  1.0000
  H   H19       1.0  0.33742778275687796  0.8363833175623151  0.7504753004243513  1.0000
  H   H20       1.0  0.6625722166688709  0.3363833182321308  0.7495246996843817  1.0000
  H   H21       1.0  0.7928533279754355  0.7705382892842393  0.3216408805598491  1.0000
  H   H22       1.0  0.20714667250366456  0.27053828995405493  0.17835911927450476  1.0000
  H   H23       1.0  0.2071466719698981  0.22946171096075738  0.6783591191718397  1.0000
  H   H24       1.0  0.7928533274416691  0.7294617102909416  0.821640880457184  1.0000
  H   H25       1.0  0.33260060341392184  0.13132780583324552  0.42118422504256126  1.0000
  H   H26       1.0  0.6673993962376809  0.6313278051634298  0.07881577475351241  1.0000
  H   H27       1.0  0.6673993965314119  0.868672194411751  0.5788157746891276  1.0000
  H   H28       1.0  0.3326006037076528  0.3686721950815668  0.9211842249781763  1.0000
  H   H29       1.0  0.1841783239124427  0.20843395838710305  0.49119976554861783  1.0000
  H   H30       1.0  0.8158216757533417  0.7084339577172873  0.008800234727165212  1.0000
  H   H31       1.0  0.8158216760470726  0.7915660418578935  0.5088002346627802  1.0000
  H   H32       1.0  0.18417832420617367  0.2915660425277093  0.9911997654842329  1.0000
  H   H33       1.0  0.21399232676819285  0.5764483997249886  0.5687210846848397  1.0000
  H   H34       1.0  0.7860076734708717  0.07644839881017627  0.9312789149824642  1.0000
  H   H35       1.0  0.7860076731771408  0.423551600520008  0.431278915046849  1.0000
  H   H36       1.0  0.21399232647446187  0.9235516014348204  0.06872108474922464  1.0000
  H   H37       1.0  0.3587230543456791  0.49638087369735173  0.4976060015927468  1.0000
  H   H38       1.0  0.6412769453059235  0.9963808730275361  0.0023939982033268177  1.0000
  H   H39       1.0  0.6412769455996545  0.503619126547645  0.502393998138942  1.0000
  H   H40       1.0  0.35872305463941007  0.0036191272174606066  0.9976060015283619  1.0000
  H   H41       1.0  0.7755895884151092  0.12439910848515043  0.1350544973725504  1.0000
  H   H42       1.0  0.22441041125067515  0.6243991093999628  0.3649455029032326  1.0000
  H   H43       1.0  0.2244104115444061  0.8756008917598461  0.8649455028388477  1.0000
  H   H44       1.0  0.7755895887088402  0.3756008908450339  0.6350544973081655  1.0000
  H   H45       1.0  0.07794365909685765  0.9131380978647333  0.1668934029362255  1.0000
  H   H46       1.0  0.922056340554745  0.41313809853454914  0.3331065968598481  1.0000
  H   H47       1.0  0.922056340848476  0.0868619007956352  0.8331065967954633  1.0000
  H   H48       1.0  0.07794365939058862  0.5868619017104475  0.6668934028718406  1.0000
  H   H49       1.0  0.7991686405264307  0.8978242762945702  0.2210889103054213  1.0000
  H   H50       1.0  0.200831359125172  0.39782427537975784  0.2789110894906523  1.0000
  H   H51       1.0  0.20083135941890295  0.10217572395042643  0.7789110894262674  1.0000
  H   H52       1.0  0.7991686408201616  0.6021757248652387  0.7210889102410365  1.0000
  H   H53       1.0  0.9350884139058767  0.9992775794157955  0.24286795305816467  1.0000
  H   H54       1.0  0.0649115865732232  0.4992775800856113  0.25713204677618917  1.0000
  H   H55       1.0  0.06491158603945674  0.0007224208292010403  0.7571320466735242  1.0000
  H   H56       1.0  0.9350884133721103  0.5007224201593853  0.7428679529554996  1.0000
  H   H57       1.0  0.9468701260063977  0.6527842059593253  0.18956982219176524  1.0000
  H   H58       1.0  0.05312987447270223  0.15278420504451298  0.3104301776425886  1.0000
  H   H59       1.0  0.053129873938935764  0.3472157942856713  0.8104301775399235  1.0000
  H   H60       1.0  0.9468701254726313  0.8472157936158556  0.6895698220891001  1.0000
  H   H61       1.0  0.8596596786063018  0.7396344740005485  0.12214303131095035  1.0000
  H   H62       1.0  0.1403403210594826  0.23963447467036417  0.3778569689648327  1.0000
  H   H63       1.0  0.14034032135321356  0.26036552624444814  0.8778569689004477  1.0000
  H   H64       1.0  0.8596596789000328  0.7603655255746324  0.6221430312465656  1.0000
  H   H65       1.0  0.9274864830206977  0.016129836869680596  0.05075631974709005  1.0000
  H   H66       1.0  0.07251351747258418  0.516129837784493  0.4492436805669732  1.0000
  H   H67       1.0  0.07251351693881772  0.983870161790688  0.9492436804643081  1.0000
  H   H68       1.0  0.9274864833144287  0.4838701624605037  0.5507563196827052  1.0000
  H   H69       1.0  0.060313607602528824  0.12832834423999367  0.0709251466217712  1.0000
  H   H70       1.0  0.9396863928765712  0.628328343570178  0.42907485321258265  1.0000
  H   H71       1.0  0.9396863923428046  0.871671656005003  0.9290748531099174  1.0000
  H   H72       1.0  0.060313607082944136  0.37167165667481866  0.5709251469988155  1.0000
  H   H73       1.0  0.0021348318051057436  0.2950484939924397  0.16710395843132464  1.0000
  H   H74       1.0  0.9978651686739944  0.795048493322624  0.3328960414030292  1.0000
  H   H75       1.0  0.9978651681402279  0.7049515062525569  0.8328960413003641  1.0000
  H   H76       1.0  0.002134831271339285  0.20495150533774456  0.6671039583286595  1.0000
  H   H77       1.0  0.9073882549067167  0.3669877243869378  0.1001491815915911  1.0000
  H   H78       1.0  0.09261174475906774  0.8669877237171221  0.3998508186841919  1.0000
  H   H79       1.0  0.0926117450527987  0.6330122758580589  0.8998508186198072  1.0000
  H   H80       1.0  0.9073882552004475  0.13301227652787453  0.6001491815272063  1.0000
  C   C1        1.0  0.5343667737490798  0.8974516098115837  0.41244111736353256  1.0000
  C   C2        1.0  0.4656332259025228  0.3974516104813994  0.08755888243254101  1.0000
  C   C3        1.0  0.46563322621043557  0.10254839043341298  0.5875588828478655  1.0000
  C   C4        1.0  0.5343667740428107  0.6025483897635973  0.9124411172991478  1.0000
  C   C5        1.0  0.4480504921863036  0.7598104018503287  0.41402134722186856  1.0000
  C   C6        1.0  0.551949507465299  0.2598104025201443  0.08597865257420509  1.0000
  C   C7        1.0  0.55194950775903  0.24018959839466802  0.5859786525098203  1.0000
  C   C8        1.0  0.44805049248003453  0.7401895977248524  0.9140213471574837  1.0000
  C   C9        1.0  0.4492422223731985  0.5675285459414395  0.37569365211003525  1.0000
  C   C10       1.0  0.5507577772784041  0.0675285450266272  0.12430634768603836  1.0000
  C   C11       1.0  0.5507577775721351  0.4324714543035571  0.6243063476216535  1.0000
  C   C12       1.0  0.4492422226669294  0.9324714552183694  0.8756936520456503  1.0000
  C   C13       1.0  0.5463100921829124  0.5289872513739582  0.3440017808718096  1.0000
  C   C14       1.0  0.45368990746869026  0.028987250459145845  0.15599821892426405  1.0000
  C   C15       1.0  0.4536899077766031  0.47101274887103844  0.6559982193395886  1.0000
  C   C16       1.0  0.5463100924766433  0.9710127497858508  0.8440017808074247  1.0000
  C   C17       1.0  0.5598159118736773  0.3416522048670925  0.30693170925888413  1.0000
  C   C18       1.0  0.4401840886196045  0.8416522041972768  0.19306829105517911  1.0000
  C   C19       1.0  0.44018408808583803  0.658347795377904  0.693068290952514  1.0000
  C   C20       1.0  0.5598159113399108  0.15834779604771976  0.8069317091562189  1.0000
  C   C21       1.0  0.6550448821441044  0.3091939867425929  0.2768080175861988  1.0000
  C   C22       1.0  0.34495511750749824  0.8091939860727771  0.22319198220987482  1.0000
  C   C23       1.0  0.3449551178012292  0.6908060135024037  0.72319198214549  1.0000
  C   C24       1.0  0.6550448824378353  0.1908060141722194  0.7768080175218139  1.0000
  C   C25       1.0  0.741050409635858  0.46267165195432164  0.2808894420712062  1.0000
  C   C26       1.0  0.2589495908432422  0.9626716512845059  0.21911055776314767  1.0000
  C   C27       1.0  0.2589495903236575  0.537328348290675  0.719110558140192  1.0000
  C   C28       1.0  0.7410504091020914  0.0373283489604907  0.780889441968541  1.0000
  C   C29       1.0  0.7287365408500067  0.6497262763454303  0.31734839393918246  1.0000
  C   C30       1.0  0.2712634596290934  0.1497262770152461  0.1826516058951714  1.0000
  C   C31       1.0  0.2712634590953269  0.35027372389956624  0.6826516057925064  1.0000
  C   C32       1.0  0.7287365403162401  0.8502737232297505  0.8173483938365173  1.0000
  C   C33       1.0  0.6329205543481051  0.6790718951887943  0.34697364124444907  1.0000
  C   C34       1.0  0.36707944531767933  0.17907189585860997  0.1530263590313339  1.0000
  C   C35       1.0  0.36707944561141026  0.32092810347157436  0.653026358966949  1.0000
  C   C36       1.0  0.632920554641836  0.8209281043863866  0.8469736411800641  1.0000
  C   C37       1.0  0.35584311285470366  0.8061772235106287  0.4530135784264056  1.0000
  C   C38       1.0  0.6441568868110807  0.3061772241804444  0.04698642184937743  1.0000
  C   C39       1.0  0.6441568871048118  0.1938227767343679  0.5469864217849926  1.0000
  C   C40       1.0  0.3558431131484346  0.6938227760645522  0.9530135783620206  1.0000
  C   C41       1.0  0.3057910236436391  0.007328010936134448  0.4525589115474477  1.0000
  C   C42       1.0  0.6942089760079635  0.5073280102663187  0.0474410882486259  1.0000
  C   C43       1.0  0.6942089763016944  0.9926719893088621  0.547441088184241  1.0000
  C   C44       1.0  0.3057910239515519  0.4926719883940498  0.9525589119627723  1.0000
  C   C45       1.0  0.2221283752724773  0.05189106476474579  0.4916731598233135  1.0000
  C   C46       1.0  0.7778716243791255  0.55189106409493  0.008326839972760045  1.0000
  C   C47       1.0  0.7778716246870381  0.9481089354802508  0.5083268403880846  1.0000
  C   C48       1.0  0.22212837556620826  0.4481089361500666  0.9916731597589287  1.0000
  C   C49       1.0  0.18528142690947047  0.8969603085660565  0.5331029920609994  1.0000
  C   C50       1.0  0.814718573343776  0.39696030765124407  0.9668970080860141  1.0000
  C   C51       1.0  0.8147185730500449  0.10303969167894021  0.46689700815039886  1.0000
  C   C52       1.0  0.18528142742905515  0.6030396925937526  0.033102991683955064  1.0000
  C   C53       1.0  0.23658627863743653  0.69617299812056  0.534677444806484  1.0000
  C   C54       1.0  0.7634137216158098  0.19617299879037572  0.9653225553405292  1.0000
  C   C55       1.0  0.7634137213220789  0.3038270021244366  0.465322555404914  1.0000
  C   C56       1.0  0.23658627834370555  0.8038270014546208  0.03467744487086895  1.0000
  C   C57       1.0  0.3194654313124178  0.6520895985214115  0.4949797397234853  1.0000
  C   C58       1.0  0.6805345691666822  0.15208959919122728  0.0050202601108685204  1.0000
  C   C59       1.0  0.6805345694604132  0.347910400138957  0.5050202600464837  1.0000
  C   C60       1.0  0.31946543077865136  0.8479104010537694  0.9949797396208202  1.0000
  C   C61       1.0  0.8747244757708509  0.9561903578160856  0.20234959389182003  1.0000
  C   C62       1.0  0.1252755247082492  0.4561903569012734  0.29765040594253384  1.0000
  C   C63       1.0  0.12527552417448276  0.0438096424289109  0.7976504058398688  1.0000
  C   C64       1.0  0.8747244752512662  0.5438096417590952  0.7023495942688643  1.0000
  C   C65       1.0  0.9230291067314488  0.7916748535112393  0.16004482711126147  1.0000
  C   C66       1.0  0.0769708929201538  0.291674854181055  0.3399551726848121  1.0000
  C   C67       1.0  0.07697089322806655  0.20832514673375732  0.8399551731001367  1.0000
  C   C68       1.0  0.9230291070251798  0.7083251460639416  0.6600448270468766  1.0000
  C   C69       1.0  0.9875970499549248  0.0624502701288558  0.09119073677090427  1.0000
  C   C70       1.0  0.012402949696677771  0.5624502694590401  0.40880926302516934  1.0000
  C   C71       1.0  0.012402949990408736  0.9375497301161407  0.9088092629607845  1.0000
  C   C72       1.0  0.9875970502486558  0.43754973078595655  0.5911907367065193  1.0000
  C   C73       1.0  0.9385412620740299  0.23469323206663106  0.1306238239732139  1.0000
  C   C74       1.0  0.06145873841925186  0.7346932313968154  0.36937617634084935  1.0000
  C   C75       1.0  0.06145873788548541  0.7653067681783656  0.8693761762381842  1.0000
  C   C76       1.0  0.9385412623677609  0.2653067688481813  0.630623823908829  1.0000
  N   N1        1.0  0.8460475451473101  0.15427868676076975  0.16587318728668052  1.0000
  N   N2        1.0  0.15395245533179008  0.6542786860909541  0.3341268125476734  1.0000
  N   N3        1.0  0.1539524547980236  0.8457213134842269  0.8341268124450083  1.0000
  N   N4        1.0  0.8460475446135436  0.3457213125694146  0.6658731871840153  1.0000
  N   N5        1.0  0.019014137142207784  0.8729830260285636  0.12970898089135677  1.0000
  N   N6        1.0  0.9809858625093949  0.37298302511375125  0.37029101890471683  1.0000
  N   N7        1.0  0.9809858628031257  0.12701697421643304  0.870291018840332  1.0000
  N   N8        1.0  0.01901413743593875  0.6270169751312454  0.6297089808269719  1.0000
  O   O1        1.0  0.6234653899956689  0.8652537603350456  0.3800929325121694  1.0000
  O   O2        1.0  0.37653460967011537  0.36525375942023336  0.11990706776361357  1.0000
  O   O3        1.0  0.37653460996384647  0.13474623990995094  0.6199070676992288  1.0000
  O   O4        1.0  0.6234653902893998  0.6347462392401352  0.8800929324477844  1.0000
  O   O5        1.0  0.3656941385602692  0.44116595654948326  0.3696080277685059  1.0000
  O   O6        1.0  0.6343058619330126  0.9411659558796677  0.13039197254555737  1.0000
  O   O7        1.0  0.6343058613992462  0.5588340436955134  0.6303919724428922  1.0000
  O   O8        1.0  0.36569413802650275  0.058834044365329054  0.8696080276658407  1.0000
  O   O9        1.0  0.47850694818565165  0.1954276119470494  0.30213853387805406  1.0000
  O   O10       1.0  0.5214930522934484  0.6954276128618618  0.19786146595629983  1.0000
  O   O11       1.0  0.5214930517738637  0.8045723882979472  0.6978614663333441  1.0000
  O   O12       1.0  0.4785069476518852  0.30457238738313486  0.8021385337753889  1.0000
  O   O13       1.0  0.8326621290659431  0.4338308670799122  0.2527699378243123  1.0000
  O   O14       1.0  0.16733787059984137  0.9338308679947245  0.24723006245147072  1.0000
  O   O15       1.0  0.16733787089357233  0.5661691315804563  0.7472300623870859  1.0000
  O   O16       1.0  0.832662129359674  0.06616913225027213  0.7527699377599274  1.0000
  O   O17       1.0  0.10362374195535601  0.9471473102951364  0.569662587496732  1.0000
  O   O18       1.0  0.8963762582978904  0.4471473109649522  0.9303374126502814  1.0000
  O   O19       1.0  0.8963762580041593  0.0528526883652321  0.4303374127146662  1.0000
  O   O20       1.0  0.10362374166162504  0.5528526892800445  0.0696625875611168  1.0000
