data_image0
_chemical_formula_structural       H112C56N12O12Br12
_chemical_formula_sum              "H112 C56 N12 O12 Br12"
_cell_length_a       8.26811379135836
_cell_length_b       19.020145594287168
_cell_length_c       12.950241957032718
_cell_angle_alpha    90.0
_cell_angle_beta     98.95372229469267
_cell_angle_gamma    90.0

_space_group_name_H-M_alt    "P 1"
_space_group_IT_number       1

loop_
  _space_group_symop_operation_xyz
  'x, y, z'

loop_
  _atom_site_type_symbol
  _atom_site_label
  _atom_site_symmetry_multiplicity
  _atom_site_fract_x
  _atom_site_fract_y
  _atom_site_fract_z
  _atom_site_occupancy
  H   H1        1.0  0.20539843715211636  0.29754532645111964  0.9000049996327156  1.0000
  H   H2        1.0  0.2946015635245451  0.7975453260755397  0.5999950000363959  1.0000
  H   H3        1.0  0.7946015627835229  0.7024546738492373  0.0999950001117304  1.0000
  H   H4        1.0  0.7053984364110942  0.20245467369905884  0.40000499970805015  1.0000
  H   H5        1.0  0.3460595714421609  0.27563665136057985  0.8155441369546169  1.0000
  H   H6        1.0  0.15394042923450052  0.7756366509849999  0.6844558627144947  1.0000
  H   H7        1.0  0.6539404284934784  0.7243633489397772  0.18445586278982928  1.0000
  H   H8        1.0  0.8460595707011387  0.22436334878959865  0.3155441370299512  1.0000
  H   H9        1.0  0.44510758272048817  0.308367635827228  0.050304309159785704  1.0000
  H   H10       1.0  0.05489241664230652  0.8083676359774065  0.44969569071122717  1.0000
  H   H11       1.0  0.5548924172151513  0.6916323644731289  0.9496956905846605  1.0000
  H   H12       1.0  0.9451075832933328  0.1916323643229505  0.5503043090332189  1.0000
  H   H13       1.0  0.5773647753133035  0.28031456613041855  0.9639018832583578  1.0000
  H   H14       1.0  0.9226352253819939  0.780314566280597  0.5360981171412297  1.0000
  H   H15       1.0  0.4226352248091494  0.71968543364418  0.03609811726779659  1.0000
  H   H16       1.0  0.07736477455364532  0.21968543349400155  0.46390188260321635  1.0000
  H   H17       1.0  0.4193594446765184  0.167065164367323  0.9331822507658125  1.0000
  H   H18       1.0  0.08064055497690678  0.6670651645175015  0.5668177496825871  1.0000
  H   H19       1.0  0.5806405552591208  0.8329348354072756  0.06681774897863359  1.0000
  H   H20       1.0  0.9193594451455462  0.3329348357828555  0.4331822508435673  1.0000
  H   H21       1.0  0.2882113813961489  0.19498166413162987  0.02136027070473657  1.0000
  H   H22       1.0  0.2117886181534595  0.6949816637560501  0.4786397299479846  1.0000
  H   H23       1.0  0.7117886187263041  0.8050183361687271  0.9786397298214178  1.0000
  H   H24       1.0  0.7882113819689934  0.3050183360185486  0.5213602705781697  1.0000
  H   H25       1.0  0.4999651511099839  0.18023029440056576  0.06703486127329905  1.0000
  H   H26       1.0  3.48482528108716e-05  0.6802302945507442  0.43296513859771385  1.0000
  H   H27       1.0  0.5000348488256555  0.8197697053740328  0.932965138471147  1.0000
  H   H28       1.0  0.9999651516828284  0.3197697057496127  0.5670348611467322  1.0000
  H   H29       1.0  0.6032314389336811  0.38548324478663304  0.9134710437774067  1.0000
  H   H30       1.0  0.8967685615748028  0.8854832444110531  0.5865289558404726  1.0000
  H   H31       1.0  0.3967685610019582  0.614516755513724  0.08652895596703934  1.0000
  H   H32       1.0  0.10323143836083658  0.11451675536354544  0.4134710439039736  1.0000
  H   H33       1.0  0.523849865983862  0.4567319875095611  0.8343332725984507  1.0000
  H   H34       1.0  0.9761501335013857  0.9567319876597397  0.6656667277987164  1.0000
  H   H35       1.0  0.4761501341385909  0.5432680122650375  0.16566672792770354  1.0000
  H   H36       1.0  0.02384986662106733  0.04326801211485905  0.3343332727274379  1.0000
  H   H37       1.0  0.5101421126128032  0.388868136331277  0.6746764528695663  1.0000
  H   H38       1.0  0.9898578880824944  0.8888681364814556  0.8253235475300211  1.0000
  H   H39       1.0  0.4898578873228361  0.6111318634433216  0.32532354687487974  1.0000
  H   H40       1.0  0.010142112039958627  0.11113186381890146  0.17467645299613319  1.0000
  H   H41       1.0  0.5317046412565541  0.30824763674579686  0.7426137204868002  1.0000
  H   H42       1.0  0.9682953592519299  0.8082476368959753  0.757386279131079  1.0000
  H   H43       1.0  0.4682953586790851  0.6917523630288017  0.2573862792576459  1.0000
  H   H44       1.0  0.03170464068370956  0.19175236287862324  0.242613720613367  1.0000
  H   H45       1.0  0.7940324427924046  0.3429024939724407  0.6846513357428362  1.0000
  H   H46       1.0  0.7059675577160793  0.8429024935968608  0.8153486638750429  1.0000
  H   H47       1.0  0.20596755714323473  0.6570975063279162  0.3153486640016098  1.0000
  H   H48       1.0  0.29403244221956  0.15709750617773777  0.18465133586940313  1.0000
  H   H49       1.0  0.817118126233705  0.340152784737002  0.8232750985974499  1.0000
  H   H50       1.0  0.6828818744615924  0.8401527843614222  0.6767249018021377  1.0000
  H   H51       1.0  0.1828818738887479  0.6598472155633549  0.17672490192870452  1.0000
  H   H52       1.0  0.3171181254740468  0.15984721541317645  0.32327509794230835  1.0000
  H   H53       1.0  0.7972152912401442  0.42239682184205163  0.7566115850707493  1.0000
  H   H54       1.0  0.7027847082451034  0.92239682199223  0.743388415326418  1.0000
  H   H55       1.0  0.2027847086954951  0.577603177932547  0.24338841467369682  1.0000
  H   H56       1.0  0.2972152918773495  0.07760317830812682  0.25661158519973637  1.0000
  H   H57       1.0  0.32498235671116926  0.4811391765975055  0.9328823277748578  1.0000
  H   H58       1.0  0.17501764415230583  0.9811391767476839  0.567117672675962  1.0000
  H   H59       1.0  0.6750176434112837  0.5188608231770931  0.06711767275129658  1.0000
  H   H60       1.0  0.8249823559701471  0.018860823026914615  0.4328823278501922  1.0000
  H   H61       1.0  0.433427375286891  0.41762321958175813  0.01645663786740715  1.0000
  H   H62       1.0  0.0665726252859536  0.9176232197319366  0.4835433620060261  1.0000
  H   H63       1.0  0.5665726248355619  0.5823767807185988  0.9835433626587472  1.0000
  H   H64       1.0  0.9334273746496856  0.0823767805684203  0.5164566377384201  1.0000
  H   H65       1.0  0.17274379446847346  0.3577320255657592  0.03774027353177619  1.0000
  H   H66       1.0  0.3272562048943212  0.8577320257159377  0.46225972633923673  1.0000
  H   H67       1.0  0.8272562054671658  0.6422679742088393  0.9622597262126699  1.0000
  H   H68       1.0  0.6727437952281318  0.14226797458441923  0.5377402741869177  1.0000
  H   H69       1.0  0.06084687708760734  0.41345593760134014  0.9432357553408804  1.0000
  H   H70       1.0  0.43915312377586774  0.9134559377515186  0.5567642451099394  1.0000
  H   H71       1.0  0.9391531228480319  0.5865440621732585  0.05676424440356559  1.0000
  H   H72       1.0  0.5608468763465853  0.0865440625488383  0.44323575541621496  1.0000
  H   H73       1.0  0.15693448535011228  0.5184765022493818  0.05713570001595728  1.0000
  H   H74       1.0  0.34306551401268237  0.01847650209920334  0.4428642998550556  1.0000
  H   H75       1.0  0.8430655145855269  0.4815234975252168  0.9428642997284888  1.0000
  H   H76       1.0  0.6569344859229569  0.9815234976753953  0.5571356998893905  1.0000
  H   H77       1.0  0.2557677711520832  0.45974629619167867  0.15403878460734863  1.0000
  H   H78       1.0  0.24423222839752515  0.9597462963418572  0.34596121604537244  1.0000
  H   H79       1.0  0.7442322289703698  0.54025370358292  0.8459612159188056  1.0000
  H   H80       1.0  0.7557677717249278  0.040253703432741476  0.6540387844807818  1.0000
  H   H81       1.0  0.040106338704790426  0.45768004281810803  0.1199441513495316  1.0000
  H   H82       1.0  0.4598936606580043  0.9576800429682866  0.3800558485214813  1.0000
  H   H83       1.0  0.959893661230849  0.5423199569564906  0.8800558483949145  1.0000
  H   H84       1.0  0.540106339277635  0.042319956806312085  0.6199441512229648  1.0000
  H   H85       1.0  0.2446705802303228  0.361209134070116  0.7084733129100037  1.0000
  H   H86       1.0  0.2553294192362887  0.8612091342202944  0.7915266867566875  1.0000
  H   H87       1.0  0.7553294197053165  0.6387908657044826  0.2915266868344423  1.0000
  H   H88       1.0  0.7446705806993505  0.13879086608006244  0.20847331298775856  1.0000
  H   H89       1.0  0.10317956515680506  0.38574532006756557  0.7914798795079552  1.0000
  H   H90       1.0  0.3968204343098064  0.885745320217744  0.708520120158736  1.0000
  H   H91       1.0  0.8968204347788342  0.6142546797070331  0.2085201202364908  1.0000
  H   H92       1.0  0.6031795656258329  0.11425468008261293  0.2914798795857101  1.0000
  H   H93       1.0  0.33927853669976543  0.48479113392115836  0.7000357094680204  1.0000
  H   H94       1.0  0.1607214641637096  0.9847911340713369  0.7999642909827995  1.0000
  H   H95       1.0  0.6607214634226874  0.5152088658534403  0.29996429105813394  1.0000
  H   H96       1.0  0.8392785359587434  0.015208866229020122  0.20003570954335487  1.0000
  H   H97       1.0  0.21528534831926852  0.5117021256095573  0.7920853452897894  1.0000
  H   H98       1.0  0.28471465114734307  0.011702125985137164  0.7079146543769022  1.0000
  H   H99       1.0  0.7847146516163708  0.48829787416504133  0.2079146544546568  1.0000
  H   H100      1.0  0.7152853487882962  0.9882978743152196  0.2920853453675441  1.0000
  H   H101      1.0  0.08612150231975055  0.4492373298428598  0.575556312100273  1.0000
  H   H102      1.0  0.4138784985437245  0.94923732946728  0.9244436883505468  1.0000
  H   H103      1.0  0.9138784978027024  0.5507626704574972  0.42444368842588126  1.0000
  H   H104      1.0  0.5861215015787284  0.05076267030731871  0.07555631217560753  1.0000
  H   H105      1.0  0.08572603509606641  0.5393789473978254  0.6098487627766076  1.0000
  H   H106      1.0  0.4142739645573587  0.03937894724764701  0.8901512376717918  1.0000
  H   H107      1.0  0.9142739648395728  0.4606210523767731  0.39015123696783843  1.0000
  H   H108      1.0  0.5857260355650942  0.9606210525269515  0.1098487628543624  1.0000
  H   H109      1.0  0.9624103230804043  0.4791070617638731  0.6673126730938682  1.0000
  H   H110      1.0  0.5375896762180297  0.9791070619140515  0.8326873265215906  1.0000
  H   H111      1.0  0.03758967685523495  0.5208929380107256  0.33268732665057776  1.0000
  H   H112      1.0  0.46241032371760965  0.020892938386305408  0.16731267322285545  1.0000
  C   C1        1.0  0.6248473682642645  0.6543101633111559  0.630851608774776  1.0000
  C   C2        1.0  0.875152632431033  0.15431016316097748  0.8691483916248115  1.0000
  C   C3        1.0  0.37515263185818853  0.34568983698920097  0.36914839175137837  1.0000
  C   C4        1.0  0.12484736769141985  0.8456898371393794  0.13085160890134284  1.0000
  C   C5        1.0  0.33247950900460466  0.3044534765148849  0.8871752576191784  1.0000
  C   C6        1.0  0.16752049167205676  0.8044534766650634  0.6128247420499332  1.0000
  C   C7        1.0  0.6675204909310346  0.695546523785472  0.11282474212526762  1.0000
  C   C8        1.0  0.8324795082635825  0.19554652363529354  0.38717525769451294  1.0000
  C   C9        1.0  0.4510132948107806  0.2769359395220449  0.979774724040116  1.0000
  C   C10       1.0  0.048986704655830896  0.7769359396722234  0.5202252756265754  1.0000
  C   C11       1.0  0.5489867051248586  0.7230640602525537  0.020225275704330185  1.0000
  C   C12       1.0  0.9510132952798084  0.22306406062813353  0.4797747241178707  1.0000
  C   C13       1.0  0.4120039074459413  0.20036515709662353  0.001498799830691675  1.0000
  C   C14       1.0  0.08799609191685337  0.700365157246802  0.49850120004032117  1.0000
  C   C15       1.0  0.587996092489698  0.799634842677975  0.9985011999137544  1.0000
  C   C16       1.0  0.9120039082055995  0.2996348425277966  0.5014988004858332  1.0000
  C   C17       1.0  0.5200240410465067  0.3993498668212834  0.8420338282635256  1.0000
  C   C18       1.0  0.9799759594619771  0.8993498669714618  0.6579661713543536  1.0000
  C   C19       1.0  0.47997595888913264  0.6006501329533153  0.1579661714809205  1.0000
  C   C20       1.0  0.020024040473662106  0.10065013280313677  0.34203382839009244  1.0000
  C   C21       1.0  0.569638364939768  0.36359070732230003  0.7469613717574072  1.0000
  C   C22       1.0  0.9303616355687159  0.8635907074724785  0.7530386278604719  1.0000
  C   C23       1.0  0.43036163620592116  0.6364092924522985  0.25303862798945914  1.0000
  C   C24       1.0  0.06963836436692342  0.13640929230212012  0.24696137188397405  1.0000
  C   C25       1.0  0.755380765714543  0.3675685401745746  0.753274083925239  1.0000
  C   C26       1.0  0.7446192337707044  0.8675685403247531  0.7467259164719281  1.0000
  C   C27       1.0  0.2446192342210961  0.632431459600024  0.24672591581920703  1.0000
  C   C28       1.0  0.25538076635174844  0.13243145944984558  0.25327408405422613  1.0000
  C   C29       1.0  0.32411762486034695  0.426109558931783  0.9578637240655072  1.0000
  C   C30       1.0  0.17588237460626457  0.9261095590819615  0.542136275601184  1.0000
  C   C31       1.0  0.6758823750752924  0.5738904408428156  0.04213627567893891  1.0000
  C   C32       1.0  0.8241176253293747  0.0738904412183955  0.45786372414326193  1.0000
  C   C33       1.0  0.16962342578456235  0.4107879217468642  0.0038232022962296657  1.0000
  C   C34       1.0  0.3303765749750959  0.9107879218970426  0.49617679835891176  1.0000
  C   C35       1.0  0.8303765743378907  0.5892120780277345  0.9961767982299246  1.0000
  C   C36       1.0  0.6696234251473571  0.08921207787755599  0.5038232021672425  1.0000
  C   C37       1.0  0.15474031451157869  0.4650523481090894  0.08871809277359732  1.0000
  C   C38       1.0  0.345259684851216  0.965052348259268  0.4112819070974155  1.0000
  C   C39       1.0  0.8452596854240605  0.5349476516655092  0.9112819069708489  1.0000
  C   C40       1.0  0.6547403150844233  0.03494765151533068  0.5887180926470305  1.0000
  C   C41       1.0  0.22225582151416842  0.3988005408475044  0.7690875726189461  1.0000
  C   C42       1.0  0.2777441779524431  0.8988005409976828  0.7309124270477452  1.0000
  C   C43       1.0  0.7777441784214708  0.6011994589270943  0.2309124271254999  1.0000
  C   C44       1.0  0.7222558219831962  0.10119945930267409  0.26908757269670097  1.0000
  C   C45       1.0  0.22382523500074242  0.47392977384502677  0.7290373370378794  1.0000
  C   C46       1.0  0.27617476465268276  0.973929773469447  0.7709626634105201  1.0000
  C   C47       1.0  0.7761747651217105  0.5260702264553301  0.2709626634882749  1.0000
  C   C48       1.0  0.7238252354697702  0.026070226305151673  0.22903733711563418  1.0000
  C   C49       1.0  0.08112523818373703  0.4857828129756902  0.6405413335543221  1.0000
  C   C50       1.0  0.4188747614696882  0.9857828131258687  0.8594586668940777  1.0000
  C   C51       1.0  0.918874761938716  0.5142171873246668  0.3594586669718324  1.0000
  C   C52       1.0  0.581125238465951  0.014217187174488317  0.1405413328503685  1.0000
  C   C53       1.0  0.18983491290132318  0.649176331421387  0.8748915684365398  1.0000
  C   C54       1.0  0.31016508796215186  0.14917633127120852  0.62510843201428  1.0000
  C   C55       1.0  0.8101650872211298  0.35082366887896993  0.12510843208961447  1.0000
  C   C56       1.0  0.6898349121603011  0.8508236690291483  0.37489156851187433  1.0000
  N   N1        1.0  0.6257491445237977  0.574683248654157  0.5967885103682151  1.0000
  N   N2        1.0  0.8742508549614499  0.07468324850397848  0.903211490028952  1.0000
  N   N3        1.0  0.3742508554118416  0.42531675164620003  0.4032114893762309  1.0000
  N   N4        1.0  0.125749145161003  0.9253167517963784  0.09678851049720229  1.0000
  N   N5        1.0  0.3494774968697957  0.3821136291502916  0.8638163535497512  1.0000
  N   N6        1.0  0.15052250380686572  0.8821136293004702  0.6361836461193605  1.0000
  N   N7        1.0  0.6505225030658436  0.617886370624307  0.13618364619469492  1.0000
  N   N8        1.0  0.8494774961287735  0.11788637099988683  0.36381635362508563  1.0000
  N   N9        1.0  0.13103114799001342  0.6985026042066906  0.8237873385658194  1.0000
  N   N10       1.0  0.36896885147659814  0.19850260405651218  0.676212661100872  1.0000
  N   N11       1.0  0.8689688519456259  0.30149739609366627  0.1762126611786266  1.0000
  N   N12       1.0  0.6310311484590412  0.8014973957180864  0.3237873386435743  1.0000
  O   O1        1.0  0.6514636111271269  0.5615304329325391  0.5079299475127546  1.0000
  O   O2        1.0  0.8485363883581207  0.061530432782360665  0.9920700528844127  1.0000
  O   O3        1.0  0.3485363889953261  0.4384695673678178  0.4920700530133998  1.0000
  O   O4        1.0  0.1514636117643322  0.9384695669922379  0.007929947641741628  1.0000
  O   O5        1.0  0.6075631190569125  0.5312034489911936  0.6644742827958745  1.0000
  O   O6        1.0  0.8924368816383851  0.031203448841015186  0.8355257176037131  1.0000
  O   O7        1.0  0.39243688087872675  0.46879655078340493  0.3355257169485716  1.0000
  O   O8        1.0  0.10756311848406791  0.9687965509335835  0.16447428292244126  1.0000
  O   O9        1.0  0.25105043860799914  0.5999241090681906  0.9270118879768207  1.0000
  O   O10       1.0  0.2489495608586123  0.09992410944377049  0.5729881116898706  1.0000
  O   O11       1.0  0.7489495613276401  0.400075890706408  0.07298811176762543  1.0000
  O   O12       1.0  0.7510504390770268  0.9000758908565866  0.4270118880545754  1.0000
  Br  Br1       1.0  0.8417673002119616  0.6696750104702532  0.7169999953772482  1.0000
  Br  Br2       1.0  0.6582327004833358  0.1696750108458331  0.7830000050223392  1.0000
  Br  Br3       1.0  0.15823269991049135  0.33032498930434534  0.28300000514890616  1.0000
  Br  Br4       1.0  0.34176729963911695  0.8303249894545238  0.21699999550381496  1.0000
  Br  Br5       1.0  0.6004697990365406  0.7144088094720631  0.5075985364777205  1.0000
  Br  Br6       1.0  0.899530200448707  0.21440880932188455  0.9924014639194467  1.0000
  Br  Br7       1.0  0.3995302010859123  0.2855911903025356  0.4924014640484339  1.0000
  Br  Br8       1.0  0.10046979967374595  0.7855911904527141  0.007598536606707599  1.0000
  Br  Br9       1.0  0.44689897730542827  0.6675438864050319  0.7113616677705916  1.0000
  Br  Br10      1.0  0.05310102216118323  0.1675438862548534  0.7886383318960996  1.0000
  Br  Br11      1.0  0.553101022630211  0.33245611336956676  0.2886383319738543  1.0000
  Br  Br12      1.0  0.946898977774456  0.8324561135197452  0.2113616678483466  1.0000
