data_image0
_chemical_formula_structural       H24C28N12O8
_chemical_formula_sum              "H24 C28 N12 O8"
_cell_length_a       3.7374744041157264
_cell_length_b       14.087996658727633
_cell_length_c       13.271428551722144
_cell_angle_alpha    90.0
_cell_angle_beta     94.09755964833003
_cell_angle_gamma    90.0

_space_group_name_H-M_alt    "P 1"
_space_group_IT_number       1

loop_
  _space_group_symop_operation_xyz
  'x, y, z'

loop_
  _atom_site_type_symbol
  _atom_site_label
  _atom_site_symmetry_multiplicity
  _atom_site_fract_x
  _atom_site_fract_y
  _atom_site_fract_z
  _atom_site_occupancy
  H   H1        1.0  0.13452516986596336  0.6677550994571027  0.1353231721108975  1.0000
  H   H2        1.0  0.8654748310636182  0.1677550994119448  0.36467682821526526  1.0000
  H   H3        1.0  0.8654748316965615  0.3322449006332131  0.8646768283593291  1.0000
  H   H4        1.0  0.1345251678165743  0.8322449006783711  0.635323172193614  1.0000
  H   H5        1.0  0.14741561279555088  0.8822324671904432  0.3504258278760314  1.0000
  H   H6        1.0  0.8525843881340308  0.3822324671452854  0.1495741724501314  1.0000
  H   H7        1.0  0.8525843861108816  0.11776753289987249  0.6495741717799135  1.0000
  H   H8        1.0  0.147415613428494  0.6177675329450304  0.8504258280200953  1.0000
  H   H9        1.0  0.5526964687889617  0.7792666243428478  0.5202189803948972  1.0000
  H   H10       1.0  0.44730353075041385  0.2792666242976899  0.9797810194051115  1.0000
  H   H11       1.0  0.4473035327998029  0.22073337574746799  0.4797810193223951  1.0000
  H   H12       1.0  0.5526964681560187  0.7207333757926259  0.020218980250833386  1.0000
  H   H13       1.0  0.5146621801070653  0.5204019696766554  0.25487187468025924  1.0000
  H   H14       1.0  0.4853378208225163  0.020401969631497544  0.2451281256459036  1.0000
  H   H15       1.0  0.4853378214554594  0.47959803041366034  0.7451281257899673  1.0000
  H   H16       1.0  0.5146621780576763  0.9795980304588183  0.7548718747629757  1.0000
  H   H17       1.0  0.8115349522379502  0.6192709972425519  0.5589250760159096  1.0000
  H   H18       1.0  0.1884650473014254  0.11927099719739405  0.9410749237840991  1.0000
  H   H19       1.0  0.1884650493245745  0.38072900284776384  0.441074924454317  1.0000
  H   H20       1.0  0.8115349516050072  0.8807290028929217  0.05892507587184582  1.0000
  H   H21       1.0  0.7944556502333698  0.49239911877055437  0.42841761360354097  1.0000
  H   H22       1.0  0.20554435069621171  0.9923991188157122  0.07158238672262186  1.0000
  H   H23       1.0  0.20554434867306265  0.5076008813197614  0.571582386052404  1.0000
  H   H24       1.0  0.7944556508663131  0.007600881274603534  0.9284176137476047  1.0000
  C   C1        1.0  0.009889393693333163  0.5288003525600515  0.050137434902789324  1.0000
  C   C2        1.0  0.9901106072624885  0.02880035251489367  0.44986256467043917  1.0000
  C   C3        1.0  0.9901106078954315  0.4711996475302642  0.9498625648145029  1.0000
  C   C4        1.0  0.009889391643944144  0.9711996475754221  0.5501374349855057  1.0000
  C   C5        1.0  0.540626702723824  0.7226778531135393  0.46478012133429764  1.0000
  C   C6        1.0  0.45937329823199763  0.22267785306838142  0.035219878238930837  1.0000
  C   C7        1.0  0.45937329618260864  0.2773221469767765  0.5352198783216473  1.0000
  C   C8        1.0  0.540626703356767  0.7773221470219343  0.9647801214783615  1.0000
  C   C9        1.0  0.38097030589101594  0.7373210614416872  0.36730386496698747  1.0000
  C   C10       1.0  0.6190296950385658  0.23732106139652928  0.13269613535917538  1.0000
  C   C11       1.0  0.6190296956977488  0.26267893864862857  0.632696134750305  1.0000
  C   C12       1.0  0.3809703038416269  0.7626789386937866  0.8673038650497039  1.0000
  C   C13       1.0  0.372148661849269  0.6652227464998851  0.29323608330973105  1.0000
  C   C14       1.0  0.6278513391065526  0.16522274645472723  0.2067639162634974  1.0000
  C   C15       1.0  0.6278513370571637  0.33477725359043065  0.7067639163462138  1.0000
  C   C16       1.0  0.37214866248221207  0.8347772536355885  0.7932360834537949  1.0000
  C   C17       1.0  0.5196955302057688  0.5750188168153382  0.312716375288856  1.0000
  C   C18       1.0  0.48030447075005284  0.07501881677018027  0.1872836242843725  1.0000
  C   C19       1.0  0.4803044687006638  0.4249811825651535  0.6872836243670889  1.0000
  C   C20       1.0  0.5196955308387118  0.9249811826103114  0.8127163754329199  1.0000
  C   C21       1.0  0.6854225542176317  0.6335219269427392  0.4838498150492333  1.0000
  C   C22       1.0  0.31457744671195004  0.13352192760740542  0.016150185276929525  1.0000
  C   C23       1.0  0.3145774473448931  0.3664780724377525  0.5161501854209932  1.0000
  C   C24       1.0  0.6854225521682425  0.8664780724829103  0.9838498151319498  1.0000
  C   C25       1.0  0.6758009456843321  0.5611973193578291  0.40928397868542266  1.0000
  C   C26       1.0  0.32419905258915727  0.061197319312671215  0.09071602082645845  1.0000
  C   C27       1.0  0.32419905322210035  0.43880268002266254  0.5907160209705222  1.0000
  C   C28       1.0  0.6758009463172753  0.9388026800678204  0.9092839788294864  1.0000
  N   N1        1.0  0.21184509456709794  0.8132640962050577  0.32029782495620013  1.0000
  N   N2        1.0  0.7881549063887237  0.3132640961598998  0.1797021746170284  1.0000
  N   N3        1.0  0.7881549043393345  0.18673590388525807  0.6797021746997449  1.0000
  N   N4        1.0  0.21184509520004097  0.6867359039304161  0.8202978251002639  1.0000
  N   N5        1.0  0.20017340326214336  0.7048215988785443  0.20896727003950274  1.0000
  N   N6        1.0  0.7998265976936781  0.20482159883338646  0.2910327295337258  1.0000
  N   N7        1.0  0.7998265983266214  0.29517840121177147  0.7910327296777895  1.0000
  N   N8        1.0  0.20017340121275434  0.7951784012569293  0.7089672701222192  1.0000
  N   N9        1.0  0.10409683394333348  0.7934485882401933  0.22528451824871595  1.0000
  N   N10       1.0  0.8959031669862482  0.29344858819503544  0.2747154820774469  1.0000
  N   N11       1.0  0.8959031676191913  0.20655141185012246  0.7747154822215107  1.0000
  N   N12       1.0  0.10409683189394445  0.7065514118952803  0.7252845183314324  1.0000
  O   O1        1.0  0.08249230355920138  0.6166004173928121  0.041446291516688535  1.0000
  O   O2        1.0  0.9175076947142881  0.11660041734765422  0.4585537079951926  1.0000
  O   O3        1.0  0.9175076953472313  0.3833995826975037  0.9585537081392563  1.0000
  O   O4        1.0  0.08249230419214446  0.8833995827426616  0.5414462916607523  1.0000
  O   O5        1.0  0.9552343282571552  0.48698751399474194  0.1316753629408233  1.0000
  O   O6        1.0  0.044765669990094493  0.9869875140398998  0.3683246373239922  1.0000
  O   O7        1.0  0.044765670649277514  0.5130124860955738  0.8683246367151216  1.0000
  O   O8        1.0  0.9552343288900982  0.013012486050415963  0.631675363084887  1.0000
