data_image0
_chemical_formula_structural       H60C72N12O16
_chemical_formula_sum              "H60 C72 N12 O16"
_cell_length_a       18.23363420315185
_cell_length_b       12.578065868593567
_cell_length_c       6.806681352764779
_cell_angle_alpha    90.0
_cell_angle_beta     101.16945919508048
_cell_angle_gamma    90.0

_space_group_name_H-M_alt    "P 1"
_space_group_IT_number       1

loop_
  _space_group_symop_operation_xyz
  'x, y, z'

loop_
  _atom_site_type_symbol
  _atom_site_label
  _atom_site_symmetry_multiplicity
  _atom_site_fract_x
  _atom_site_fract_y
  _atom_site_fract_z
  _atom_site_occupancy
  H   H1        1.0  0.05970609760426622  0.6948966304767272  0.9657830810705998  1.0000
  H   H2        1.0  0.9402939021991842  0.19489663002330174  0.5342169189334993  1.0000
  H   H3        1.0  0.9402939021153742  0.305103369635089  0.03421691895291152  1.0000
  H   H4        1.0  0.059706097520456414  0.8051033700885145  0.465783081090012  1.0000
  H   H5        1.0  0.2708525346771179  0.6236311657093504  0.05051049669477354  1.0000
  H   H6        1.0  0.7291474649587129  0.12363116525592491  0.44948950334815  1.0000
  H   H7        1.0  0.7291474650425226  0.3763688344024658  0.9494895033287377  1.0000
  H   H8        1.0  0.2708525347609277  0.8763688340608565  0.5505104966753613  1.0000
  H   H9        1.0  0.2510722474921998  0.49912284890125025  0.9261379164899595  1.0000
  H   H10       1.0  0.7489277523112505  0.9991228485596411  0.5738620835141395  1.0000
  H   H11       1.0  0.7489277522274407  0.500877151210566  0.07386208353355174  1.0000
  H   H12       1.0  0.25107224740839  0.0008771515521752991  0.4261379165093717  1.0000
  H   H13       1.0  0.24696758888283768  0.5821798324561324  0.596935526179405  1.0000
  H   H14       1.0  0.7530324114795985  0.08217983200270682  0.9030644740971869  1.0000
  H   H15       1.0  0.7530324113957887  0.4178201676556839  0.4030644741165991  1.0000
  H   H16       1.0  0.24696758879902786  0.9178201681091094  0.09693552619881719  1.0000
  H   H17       1.0  0.2531035911569549  0.7116117647586174  0.7045203197520415  1.0000
  H   H18       1.0  0.7468964086464954  0.21161176510022664  0.7954796802520576  1.0000
  H   H19       1.0  0.7468964091216713  0.2883882353531989  0.2954796805439625  1.0000
  H   H20       1.0  0.2531035910731452  0.7883882350115897  0.20452031977145374  1.0000
  H   H21       1.0  0.5464276597568815  0.8077338269763747  0.934651116873283  1.0000
  H   H22       1.0  0.45357234004656904  0.3077338265229491  0.5653488831308163  1.0000
  H   H23       1.0  0.45357233996275914  0.19226617313544164  0.06534888315022852  1.0000
  H   H24       1.0  0.5464276596730715  0.6922661735888671  0.43465111689269503  1.0000
  H   H25       1.0  0.6610870041340519  0.7096120988113431  0.900844977276022  1.0000
  H   H26       1.0  0.3389129962283843  0.2096120991529523  0.5991550230005699  1.0000
  H   H27       1.0  0.33891299613788844  0.29038790130047326  0.09915502154747302  1.0000
  H   H28       1.0  0.661087004050242  0.790387900958864  0.4008449772954341  1.0000
  H   H29       1.0  0.6538858451919445  0.5222429178401575  0.7816036839018606  1.0000
  H   H30       1.0  0.3461141546115058  0.02224291818176678  0.7183963161022385  1.0000
  H   H31       1.0  0.346114154527696  0.47775708227165875  0.21839631612165067  1.0000
  H   H32       1.0  0.6538858451081347  0.9777570819300495  0.28160368392127294  1.0000
  H   H33       1.0  0.5327739831551929  0.42896363609227217  0.6971056455539298  1.0000
  H   H34       1.0  0.4672260166482574  0.9289636365456977  0.8028943544501692  1.0000
  H   H35       1.0  0.4672260165644477  0.5710363640195442  0.3028943544695815  1.0000
  H   H36       1.0  0.5327739830713832  0.0710363635661186  0.19710564557334206  1.0000
  H   H37       1.0  0.09959207269678647  0.062196164193523557  0.2035632689830129  1.0000
  H   H38       1.0  0.9004079269390444  0.5621961646469491  0.29643673105991064  1.0000
  H   H39       1.0  0.9004079270228541  0.9378038359182927  0.7964367310404985  1.0000
  H   H40       1.0  0.09959207278059626  0.4378038354648672  0.7035632689636007  1.0000
  H   H41       1.0  0.9643314129940542  0.10782497040235714  0.03269705192545979  1.0000
  H   H42       1.0  0.03566858720076239  0.6078249700607479  0.46730294838995645  1.0000
  H   H43       1.0  0.03566858728457219  0.8921750297094592  0.9673029483705442  1.0000
  H   H44       1.0  0.9643314130778639  0.39217502925603365  0.5326970519060477  1.0000
  H   H45       1.0  0.23127260603363195  0.19168330848227538  0.3564984410090819  1.0000
  H   H46       1.0  0.7687273941611846  0.691683308935701  0.14350155930633443  1.0000
  H   H47       1.0  0.7687273942449944  0.8083166916295409  0.6435015592869223  1.0000
  H   H48       1.0  0.23127260611744177  0.3083166911761154  0.8564984409896697  1.0000
  H   H49       1.0  0.2686433102443088  0.3826144003599594  0.41575286432408776  1.0000
  H   H50       1.0  0.7313566899505076  0.8826144008133849  0.08424713599132853  1.0000
  H   H51       1.0  0.7313566900343175  0.6173855997518568  0.5842471359719164  1.0000
  H   H52       1.0  0.2686433103281186  0.11738559929843133  0.9157528643046756  1.0000
  H   H53       1.0  0.17799333254849434  0.5273373028330042  0.30355637365556515  1.0000
  H   H54       1.0  0.8220066676463222  0.027337302379578658  0.19644362665985116  1.0000
  H   H55       1.0  0.8220066671711461  0.4726626972788121  0.6964436263679462  1.0000
  H   H56       1.0  0.17799333263230413  0.9726626977322376  0.8035563736361528  1.0000
  H   H57       1.0  0.046644265739896544  0.48867700123495145  0.14426711210570473  1.0000
  H   H58       1.0  0.9533557338959342  0.9886770008933423  0.35573288793721886  1.0000
  H   H59       1.0  0.953355733979744  0.5113229988768648  0.8557328879178066  1.0000
  H   H60       1.0  0.046644265823706337  0.011322999218474043  0.6442671120862925  1.0000
  C   C1        1.0  0.15723865243310658  0.6054765255297205  0.8925778901246839  1.0000
  C   C2        1.0  0.8427613473703438  0.10547652587132982  0.6074221098794153  1.0000
  C   C3        1.0  0.842761347286534  0.39452347378706093  0.10742210989882743  1.0000
  C   C4        1.0  0.15723865234929676  0.8945234742404865  0.3925778901440961  1.0000
  C   C5        1.0  0.24070396894609764  0.5852359469972386  0.9136963976648398  1.0000
  C   C6        1.0  0.7592960308573528  0.08523594654381299  0.5863036023392594  1.0000
  C   C7        1.0  0.7592960307735429  0.4147640531145778  0.08630360235867159  1.0000
  C   C8        1.0  0.24070396942127362  0.9147640535680034  0.41369639795674473  1.0000
  C   C9        1.0  0.26961124697487  0.6282369302684827  0.7318419934356153  1.0000
  C   C10       1.0  0.7303887528285804  0.12823692981505722  0.7681580065684839  1.0000
  C   C11       1.0  0.7303887527447707  0.3717630698433335  0.2681580065878962  1.0000
  C   C12       1.0  0.2696112468910602  0.871763070296759  0.23184199345502737  1.0000
  C   C13       1.0  0.3971580875631732  0.7109422357477201  0.8240905556592674  1.0000
  C   C14       1.0  0.6028419122402771  0.21094223608932935  0.6759094443448317  1.0000
  C   C15       1.0  0.6028419121564674  0.2890577635690614  0.1759094443642439  1.0000
  C   C16       1.0  0.3971580874793634  0.789057764022487  0.32409055567867967  1.0000
  C   C17       1.0  0.4747382505132478  0.6729115738798723  0.8316051119027643  1.0000
  C   C18       1.0  0.5252617492902026  0.1729115742214815  0.6683948881013348  1.0000
  C   C19       1.0  0.5252617492063927  0.32708842623194406  0.1683948881207471  1.0000
  C   C20       1.0  0.474738250429438  0.8270884258903348  0.33160511192217645  1.0000
  C   C21       1.0  0.5425280355262427  0.7255650896842106  0.8841425687579713  1.0000
  C   C22       1.0  0.4574719642772076  0.22556508923078505  0.6158574312461279  1.0000
  C   C23       1.0  0.45747196475238355  0.2744349104276057  0.11585743153803284  1.0000
  C   C24       1.0  0.5425280354357469  0.7744349108810312  0.38414256730487434  1.0000
  C   C25       1.0  0.6072360669835805  0.6693473470370205  0.8657533794839947  1.0000
  C   C26       1.0  0.39276393281986993  0.16934734658359488  0.6342466205201044  1.0000
  C   C27       1.0  0.39276393329504594  0.3306526530747959  0.13424662081200933  1.0000
  C   C28       1.0  0.6072360668997705  0.8306526535282214  0.365753379503407  1.0000
  C   C29       1.0  0.6033054904537697  0.5641135079214995  0.7986374811817072  1.0000
  C   C30       1.0  0.39669450934299455  0.06411350746807397  0.7013625173498828  1.0000
  C   C31       1.0  0.39669450925918476  0.4358864921903168  0.20136251736929503  1.0000
  C   C32       1.0  0.60330549036996  0.9358864926437422  0.2986374812011194  1.0000
  C   C33       1.0  0.5346698982858415  0.5108010171931472  0.7491317606335717  1.0000
  C   C34       1.0  0.46533010207659464  0.010801017534756392  0.7508682396430203  1.0000
  C   C35       1.0  0.46533010199278474  0.48919898291866915  0.2508682396624325  1.0000
  C   C36       1.0  0.5346698982020318  0.9891989825770598  0.2491317606529838  1.0000
  C   C37       1.0  0.4709088970908726  0.5670007904639355  0.7662004715570019  1.0000
  C   C38       1.0  0.5290911027125776  0.06700079001050994  0.7337995284470973  1.0000
  C   C39       1.0  0.5290911031877538  0.4329992096478808  0.23379952873900223  1.0000
  C   C40       1.0  0.4709088970070628  0.9329992101013064  0.266200471576414  1.0000
  C   C41       1.0  0.3910417159164535  0.534828869579787  0.7210610465038012  1.0000
  C   C42       1.0  0.6089582838869969  0.034828869921396305  0.7789389535002978  1.0000
  C   C43       1.0  0.6089582838031871  0.4651711297369944  0.27893895351971004  1.0000
  C   C44       1.0  0.39104171639162943  0.9651711301904199  0.22106104679570626  1.0000
  C   C45       1.0  0.007862542256375255  0.16455788844039815  0.09225467990598334  1.0000
  C   C46       1.0  0.9921374579317552  0.6645578880987889  0.4077453189369238  1.0000
  C   C47       1.0  0.9921374580155651  0.8354421116714181  0.9077453189175116  1.0000
  C   C48       1.0  0.007862542346871107  0.33544211201302737  0.5922546813590802  1.0000
  C   C49       1.0  0.11716343004608964  0.23509153242577513  0.22548919573446316  1.0000
  C   C50       1.0  0.8828365695897411  0.7350915328792006  0.2745108043084604  1.0000
  C   C51       1.0  0.8828365696735508  0.7649084676860413  0.7745108042890482  1.0000
  C   C52       1.0  0.11716343012989942  0.26490846723261563  0.725489195715051  1.0000
  C   C53       1.0  0.19141205372306289  0.2559851445872596  0.31338798520481653  1.0000
  C   C54       1.0  0.8085879464717537  0.7559851450406853  0.18661201511059974  1.0000
  C   C55       1.0  0.8085879465555634  0.7440148555245566  0.6866120150911876  1.0000
  C   C56       1.0  0.1914120538068727  0.2440148550711311  0.8133879851854042  1.0000
  C   C57       1.0  0.21185598879273992  0.3622754299115081  0.34196622286064626  1.0000
  C   C58       1.0  0.7881440114020766  0.8622754295698988  0.15803377745477  1.0000
  C   C59       1.0  0.7881440114858863  0.6377245702003083  0.6580337774353577  1.0000
  C   C60       1.0  0.21185598887654974  0.13772457054191753  0.8419662228412341  1.0000
  C   C61       1.0  0.16005132932016278  0.4449009115123773  0.2813123715716435  1.0000
  C   C62       1.0  0.8399486708746537  0.9449009111707681  0.21868762874377284  1.0000
  C   C63       1.0  0.8399486703994776  0.555099088599439  0.7186876284518677  1.0000
  C   C64       1.0  0.16005132940397257  0.05509908894104822  0.7813123715522312  1.0000
  C   C65       1.0  0.08613953895138345  0.42454130673089635  0.19143593028315173  1.0000
  C   C66       1.0  0.9138604606844474  0.9245413071843219  0.30856406975977185  1.0000
  C   C67       1.0  0.9138604607682571  0.5754586933809199  0.8085640697403595  1.0000
  C   C68       1.0  0.08613953903519324  0.0754586929274944  0.6914359302637395  1.0000
  C   C69       1.0  0.06496545403543136  0.3179000930488135  0.1652530902591991  1.0000
  C   C70       1.0  0.9350345461593851  0.817900093502239  0.33474691005621715  1.0000
  C   C71       1.0  0.935034546243195  0.6820999070630028  0.8347469100368049  1.0000
  C   C72       1.0  0.06496545411924115  0.18209990660957726  0.665253090239787  1.0000
  N   N1        1.0  0.3505000766475175  0.623770563929897  0.7633735955965462  1.0000
  N   N2        1.0  0.6494999231559329  0.12377056347647152  0.7366264044075529  1.0000
  N   N3        1.0  0.6494999236311088  0.3762294361819193  0.23662640469945798  1.0000
  N   N4        1.0  0.35050007656370774  0.87622943584031  0.26337359561595836  1.0000
  N   N5        1.0  0.07872705979649829  0.1406698309966668  0.17663508864905048  1.0000
  N   N6        1.0  0.9212729403983182  0.6406698306550576  0.3233649116663659  1.0000
  N   N7        1.0  0.921272940482128  0.8593301691151496  0.8233649116469536  1.0000
  N   N8        1.0  0.07872705988030809  0.3593301694567588  0.6766350886296384  1.0000
  N   N9        1.0  0.9976172483552073  0.26974169283622723  0.08211975226355708  1.0000
  N   N10       1.0  0.002382751273937281  0.769741692494618  0.41788024630685733  1.0000
  N   N11       1.0  0.002382751357747081  0.7302583072755889  0.9178802462874451  1.0000
  N   N12       1.0  0.9976172484390171  0.2302583068221635  0.5821197522441448  1.0000
  O   O1        1.0  0.1372250138737689  0.6681550397175425  0.01987625663392416  1.0000
  O   O2        1.0  0.8627749857620618  0.1681550392641169  0.48012374340899944  1.0000
  O   O3        1.0  0.8627749858458716  0.33184496039427386  0.9801237433895872  1.0000
  O   O4        1.0  0.13722501395757872  0.8318449608476993  0.519876256614512  1.0000
  O   O5        1.0  0.11226880255564196  0.5611317561647651  0.7498208382925677  1.0000
  O   O6        1.0  0.8877311972478084  0.06113175571133957  0.7501791617115315  1.0000
  O   O7        1.0  0.8877311971639985  0.43886824394705115  0.25017916173094373  1.0000
  O   O8        1.0  0.11226880303081796  0.9388682444004768  0.24982083858447263  1.0000
  O   O9        1.0  0.3751538735615303  0.8003011500468132  0.8578725336598022  1.0000
  O   O10       1.0  0.6248461267942198  0.3003011503884224  0.6421274651442805  1.0000
  O   O11       1.0  0.6248461267104101  0.19969885006500313  0.1421274651636928  1.0000
  O   O12       1.0  0.37515387347772056  0.6996988497233939  0.35787253367921446  1.0000
  O   O13       1.0  0.36307620137176644  0.4496487464039971  0.6578784955386938  1.0000
  O   O14       1.0  0.6369237984316839  0.9496487468574226  0.8421215044654052  1.0000
  O   O15       1.0  0.6369237989068598  0.5503512537078192  0.3421215047573102  1.0000
  O   O16       1.0  0.36307620128795665  0.05035125325439369  0.1578784955581061  1.0000
