data_image0
_chemical_formula_structural       H72C88N12O8Cl12
_chemical_formula_sum              "H72 C88 N12 O8 Cl12"
_cell_length_a       7.323358520204789
_cell_length_b       16.784091697561166
_cell_length_c       17.029090234783414
_cell_angle_alpha    102.75670270666053
_cell_angle_beta     92.39766349760022
_cell_angle_gamma    98.73620012342938

_space_group_name_H-M_alt    "P 1"
_space_group_IT_number       1

loop_
  _space_group_symop_operation_xyz
  'x, y, z'

loop_
  _atom_site_type_symbol
  _atom_site_label
  _atom_site_symmetry_multiplicity
  _atom_site_fract_x
  _atom_site_fract_y
  _atom_site_fract_z
  _atom_site_occupancy
  H   H1        1.0  0.3852627479439137  0.8124821260600416  0.18535889529955146  1.0000
  H   H2        1.0  0.6147372519802374  0.18751787360099112  0.8146411051122925  1.0000
  H   H3        1.0  0.2818674246396841  0.8919265644843207  0.08942607113925624  1.0000
  H   H4        1.0  0.7181325753770399  0.10807343563542543  0.9105739286673626  1.0000
  H   H5        1.0  0.32263440287583345  0.04545737380539499  0.12899340223532046  1.0000
  H   H6        1.0  0.6773655972607378  0.954542626458123  0.8710065981752183  1.0000
  H   H7        1.0  0.4535308258793182  0.11950139028132585  0.26875716285013973  1.0000
  H   H8        1.0  0.5464691741374058  0.8804986098384202  0.7312428369564792  1.0000
  H   H9        1.0  0.9857416100934502  0.976640573994247  0.4035656713606922  1.0000
  H   H10       1.0  0.014258389923273876  0.023359426125499093  0.5964343284459267  1.0000
  H   H11       1.0  0.7294392536728982  0.9244516906005651  0.5242800315946256  1.0000
  H   H12       1.0  0.27056074613140596  0.07554830891669578  0.47571996821329854  1.0000
  H   H13       1.0  0.5642331033496256  0.8392688422336817  0.47085410644969683  1.0000
  H   H14       1.0  0.4357668966670984  0.16073115788606446  0.5291458933569221  1.0000
  H   H15       1.0  0.8233978789982427  0.7558130044321074  0.5381510952484113  1.0000
  H   H16       1.0  0.17660212113832835  0.2441869958314105  0.4618489051621275  1.0000
  H   H17       1.0  0.09136624709428494  0.6851176783243055  0.4920310785623005  1.0000
  H   H18       1.0  0.9086337530422861  0.3148823219392124  0.5079689218482383  1.0000
  H   H19       1.0  0.26170164588152267  0.7234948184889977  0.37465810342410666  1.0000
  H   H20       1.0  0.7382983541352012  0.27650518163074833  0.6253418963825121  1.0000
  H   H21       1.0  0.16092508765598496  0.835033794411814  0.3145470755620615  1.0000
  H   H22       1.0  0.8390749123607391  0.16496620570793205  0.6854529242445574  1.0000
  H   H23       1.0  0.9437690981033646  0.05624402911067146  0.1528677140210021  1.0000
  H   H24       1.0  0.05623090203320651  0.9437559711528465  0.8471322863895366  1.0000
  H   H25       1.0  0.7642178241759341  0.791584789342498  0.09396877712347597  1.0000
  H   H26       1.0  0.2357821756283699  0.20841521017476292  0.9060312226844481  1.0000
  H   H27       1.0  0.8058538505147822  0.7897591197315031  0.23781042100549743  1.0000
  H   H28       1.0  0.1941461492895219  0.2102408797857577  0.7621895788024267  1.0000
  H   H29       1.0  0.5742873609696553  0.11243738320900289  0.39770512045860235  1.0000
  H   H30       1.0  0.42571263883464866  0.8875626163082578  0.6022948793493217  1.0000
  H   H31       1.0  0.5357519243958936  0.81761602527708  0.31780656235869353  1.0000
  H   H32       1.0  0.4642480756208304  0.18238397484266608  0.6821934374479253  1.0000
  H   H33       1.0  0.9492946352007908  0.352066169573622  0.05723743235077408  1.0000
  H   H34       1.0  0.050705364815933116  0.6479338305461241  0.9427625674558449  1.0000
  H   H35       1.0  0.8005139321486892  0.2091702373684824  0.9902305639126302  1.0000
  H   H36       1.0  0.1994860679878819  0.7908297628950355  0.0097694364979086  1.0000
  H   H37       1.0  0.6861750985799188  0.10777849109274877  0.07284345005572096  1.0000
  H   H38       1.0  0.31382490122438544  0.8922215084245121  0.9271565497522031  1.0000
  H   H39       1.0  0.7230305067746384  0.15254519246295892  0.22304326742999284  1.0000
  H   H40       1.0  0.2769694932420855  0.8474548076567872  0.7769567323766261  1.0000
  H   H41       1.0  0.2972969898354693  0.3326930267326007  0.3092161318057444  1.0000
  H   H42       1.0  0.7027030101812546  0.6673069733871453  0.6907838680008744  1.0000
  H   H43       1.0  0.1613824652059224  0.5521292223492127  0.2903412891434582  1.0000
  H   H44       1.0  0.8386175345983816  0.4478707771680481  0.7096587106644658  1.0000
  H   H45       1.0  0.056080790418227985  0.5351764622681818  0.37888503262552586  1.0000
  H   H46       1.0  0.9439192095984961  0.4648235378515643  0.621114967181093  1.0000
  H   H47       1.0  0.38501234507433724  0.644817998493117  0.45974566634034003  1.0000
  H   H48       1.0  0.6149876549423868  0.355182001626629  0.5402543334662789  1.0000
  H   H49       1.0  0.6959344359813014  0.6317141427246659  0.5110734095416237  1.0000
  H   H50       1.0  0.3040655640354225  0.3682858573950801  0.4889265902649952  1.0000
  H   H51       1.0  0.8308443090773097  0.504214819759672  0.457335927119948  1.0000
  H   H52       1.0  0.16915569093941446  0.49578518036007413  0.5426640726866708  1.0000
  H   H53       1.0  0.6376818499139021  0.3893242236935984  0.3503131225664982  1.0000
  H   H54       1.0  0.3623181501028219  0.6106757764261476  0.6496868772401206  1.0000
  H   H55       1.0  0.39927520089590185  0.22791756075223762  0.03833575601796643  1.0000
  H   H56       1.0  0.6007247992406692  0.7720824395112803  0.9616642443925724  1.0000
  H   H57       1.0  0.5523988054748799  0.4931547016238782  0.07507768591360592  1.0000
  H   H58       1.0  0.4476011946616912  0.5068452986396398  0.9249223144969329  1.0000
  H   H59       1.0  0.4589860130565965  0.5114797294870694  0.21404498485243556  1.0000
  H   H60       1.0  0.5410139867477076  0.48852027003019133  0.7859550149554886  1.0000
  H   H61       1.0  0.7900783565657937  0.27325968792812744  0.3429213318483204  1.0000
  H   H62       1.0  0.20992164345093015  0.7267403121916185  0.6570786679582984  1.0000
  H   H63       1.0  0.046624227839520395  0.45301765081203393  0.18410348118877704  1.0000
  H   H64       1.0  0.9533757721772035  0.5469823493077121  0.8158965186178418  1.0000
  H   H65       1.0  0.9207775851571439  0.6809934315871559  0.08492264871808415  1.0000
  H   H66       1.0  0.07922241485958005  0.3190065685325902  0.9150773510885347  1.0000
  H   H67       1.0  0.7880324226254074  0.6127174770297787  0.1348153475688242  1.0000
  H   H68       1.0  0.21196757739131658  0.3872825230899672  0.8651846522377946  1.0000
  H   H69       1.0  0.8800965856347533  0.570910033522214  0.042179026566746367  1.0000
  H   H70       1.0  0.11990341450181767  0.42908996674130384  0.9578209738437924  1.0000
  H   H71       1.0  0.28546768759989866  0.6727678593797706  0.2202677565836138  1.0000
  H   H72       1.0  0.7145323124168252  0.3272321407399754  0.779732243223005  1.0000
  C   C1        1.0  0.6681224787116271  0.014184372994843833  0.4303544843608102  1.0000
  C   C2        1.0  0.33187752121252406  0.9858156266661889  0.5696455160510338  1.0000
  C   C3        1.0  0.6888716226519175  0.9231303839355772  0.3973551188241561  1.0000
  C   C4        1.0  0.31112837736480636  0.07686961618416883  0.6026448809824628  1.0000
  C   C5        1.0  0.4807965850563329  0.9212053917528163  0.28040279871921375  1.0000
  C   C6        1.0  0.5192034149603911  0.07879460836692968  0.7195972010874051  1.0000
  C   C7        1.0  0.39953430457717315  0.8797045676967213  0.20323712172490355  1.0000
  C   C8        1.0  0.6004656954395509  0.12029543242302465  0.7967628780817153  1.0000
  C   C9        1.0  0.34295104425885425  0.9244571500482603  0.14938855932518316  1.0000
  C   C10       1.0  0.6570489557578697  0.07554285007148574  0.8506114404814358  1.0000
  C   C11       1.0  0.3649200345379871  0.010642781704786547  0.17139192934928146  1.0000
  C   C12       1.0  0.6350799654787369  0.9893572184149595  0.8286080704573374  1.0000
  C   C13       1.0  0.4401465695343922  0.052488441990975174  0.24865366871120212  1.0000
  C   C14       1.0  0.5598534304823317  0.9475115581287707  0.7513463310954167  1.0000
  C   C15       1.0  0.49771869204107827  0.008148684253773693  0.3026469967463909  1.0000
  C   C16       1.0  0.5022813079756457  0.9918513158659724  0.6973530030602281  1.0000
  C   C17       1.0  0.8926649158054918  0.9227682717598151  0.3662185207281967  1.0000
  C   C18       1.0  0.10733508433107919  0.07723172850370283  0.6337814796823421  1.0000
  C   C19       1.0  0.6968085772483162  0.8780481914254856  0.4666753018254216  1.0000
  C   C20       1.0  0.3031914225559877  0.12195180809177501  0.5333246979825025  1.0000
  C   C21       1.0  0.8485459269137504  0.8287094645558073  0.45043063392900157  1.0000
  C   C22       1.0  0.1514540731029735  0.17129053556393867  0.5495693658776173  1.0000
  C   C23       1.0  0.9011251963483844  0.7697951128337097  0.48834194956678006  1.0000
  C   C24       1.0  0.0988748037881867  0.23020488742980824  0.5116580508437587  1.0000
  C   C25       1.0  0.05012419310539418  0.7311474830218827  0.46170812800714245  1.0000
  C   C26       1.0  0.9498758068187569  0.26885251663914994  0.5382918724047016  1.0000
  C   C27       1.0  0.14435574181092964  0.7521241713188151  0.3974552064461589  1.0000
  C   C28       1.0  0.8556442582057944  0.24787582880093095  0.6025447933604601  1.0000
  C   C29       1.0  0.09170977197939346  0.8130811601103171  0.36284798536775575  1.0000
  C   C30       1.0  0.9082902281571775  0.18691884015320084  0.637152015042783  1.0000
  C   C31       1.0  0.900012511429569  0.9217135242831996  0.2785541922706539  1.0000
  C   C32       1.0  0.09998748858715517  0.07828647583654642  0.721445807535965  1.0000
  C   C33       1.0  0.940779667767281  0.995877672264884  0.25262085944200435  1.0000
  C   C34       1.0  0.05922033224944313  0.0041223278548621735  0.7473791403646146  1.0000
  C   C35       1.0  0.9152622735427436  0.9978889877314822  0.17154083506206083  1.0000
  C   C36       1.0  0.0847377264739804  0.0021110123882638783  0.828459164744558  1.0000
  C   C37       1.0  0.8492057782052623  0.924014965966937  0.1153707881247358  1.0000
  C   C38       1.0  0.15079422181146168  0.07598503415280912  0.884629211681883  1.0000
  C   C39       1.0  0.8163257851137381  0.848730365384202  0.13841929817272347  1.0000
  C   C40       1.0  0.1836742149029859  0.15126963473554403  0.8615807016338954  1.0000
  C   C41       1.0  0.841594540007694  0.848293408400089  0.2196469565985718  1.0000
  C   C42       1.0  0.1584054600090301  0.15170659171965706  0.7803530432080471  1.0000
  C   C43       1.0  0.9918508140055834  0.3736482653513039  0.34751725366023506  1.0000
  C   C44       1.0  0.008149186011140473  0.6263517347684422  0.6524827461463838  1.0000
  C   C45       1.0  0.10495057319692216  0.42203985782904113  0.29402136359349584  1.0000
  C   C46       1.0  0.8950494268198017  0.5779601422907048  0.705978636213123  1.0000
  C   C47       1.0  0.9201353791963254  0.33296982400164393  0.1772894429852563  1.0000
  C   C48       1.0  0.07986462094024564  0.6670301762618739  0.8227105574252824  1.0000
  C   C49       1.0  0.8990571045277588  0.30791838943580785  0.0929396501338864  1.0000
  C   C50       1.0  0.10094289548896518  0.6920816106839381  0.9070603496727325  1.0000
  C   C51       1.0  0.8157375599503928  0.22739086985267404  0.05589071921959623  1.0000
  C   C52       1.0  0.18426244006633127  0.7726091302670721  0.9441092805870227  1.0000
  C   C53       1.0  0.7512915462874243  0.1708807288450874  0.10185856839050185  1.0000
  C   C54       1.0  0.24870845351687973  0.8291192706721735  0.8981414314174222  1.0000
  C   C55       1.0  0.771382179287673  0.19550917350316913  0.18600639009414788  1.0000
  C   C56       1.0  0.228617820848898  0.8044908267603488  0.8139936103163908  1.0000
  C   C57       1.0  0.8551523992150104  0.2760162387845216  0.22350370753308774  1.0000
  C   C58       1.0  0.1448476008017137  0.7239837613352246  0.7764962922735311  1.0000
  C   C59       1.0  0.30227384463859364  0.3906126212857375  0.28866501565645686  1.0000
  C   C60       1.0  0.6977261553781304  0.6093873788340085  0.7113349841501619  1.0000
  C   C61       1.0  0.15638495772094163  0.5147295327622962  0.3360908464920802  1.0000
  C   C62       1.0  0.8436150420833625  0.4852704667549647  0.6639091533158439  1.0000
  C   C63       1.0  0.3445863848151817  0.5245752505872163  0.37659234613891784  1.0000
  C   C64       1.0  0.6554136151089694  0.4754247490738164  0.6234076542729261  1.0000
  C   C65       1.0  0.443972393959229  0.5898504834895271  0.43445526544299407  1.0000
  C   C66       1.0  0.556027606177342  0.41014951677399086  0.5655447349675448  1.0000
  C   C67       1.0  0.6197853773352661  0.5826007740219884  0.4632755381812807  1.0000
  C   C68       1.0  0.380214622469038  0.4173992254952724  0.5367244616266433  1.0000
  C   C69       1.0  0.6964078058636025  0.5117458184652793  0.43330248190904697  1.0000
  C   C70       1.0  0.3035921941531214  0.48825418165446666  0.5666975178975718  1.0000
  C   C71       1.0  0.594270354824668  0.44825793168098305  0.3750162376515645  1.0000
  C   C72       1.0  0.405729645192056  0.551742068438763  0.6249837621550544  1.0000
  C   C73       1.0  0.3737786999773337  0.3800706686234464  0.2064339792786899  1.0000
  C   C74       1.0  0.6262213001592374  0.6199293316400716  0.7935660211318488  1.0000
  C   C75       1.0  0.3584590720188095  0.3007637577187314  0.15522262016373764  1.0000
  C   C76       1.0  0.6415409281177615  0.6992362425447864  0.8447773802468012  1.0000
  C   C77       1.0  0.4114177657931339  0.28993240663847536  0.07648090693268694  1.0000
  C   C78       1.0  0.5885822343434371  0.7100675936250426  0.9235190934778518  1.0000
  C   C79       1.0  0.4811222956109165  0.3597515566639512  0.04868506406992302  1.0000
  C   C80       1.0  0.5188777058897869  0.6402484435971578  0.9513149363357306  1.0000
  C   C81       1.0  0.4995490848434676  0.4392474918987531  0.09796429367438068  1.0000
  C   C82       1.0  0.5004509152931034  0.5607525083647648  0.902035706736158  1.0000
  C   C83       1.0  0.44594934818559645  0.44872145900576255  0.17646265055053587  1.0000
  C   C84       1.0  0.5540506519509747  0.5512785412577554  0.8235373498600029  1.0000
  C   C85       1.0  0.0762905113688514  0.6097184483473885  0.14533582825538105  1.0000
  C   C86       1.0  0.9237094886478726  0.3902815517723576  0.8546641715512379  1.0000
  C   C87       1.0  0.9068969461920797  0.619442892673024  0.09800146169889727  1.0000
  C   C88       1.0  0.09310305394449128  0.38055710759049377  0.9019985387116415  1.0000
  N   N1        1.0  0.5751465492649203  0.04918650557618195  0.38048164129684836  1.0000
  N   N2        1.0  0.4248534508716508  0.950813494687336  0.6195183591136905  1.0000
  N   N3        1.0  0.5412780021374067  0.8807929122773426  0.33695598576395425  1.0000
  N   N4        1.0  0.4587219976668974  0.1192070872399183  0.6630440140439697  1.0000
  N   N5        1.0  0.9471592420559282  0.8494313189826717  0.39007491972719077  1.0000
  N   N6        1.0  0.052840757960795716  0.15056868113707433  0.6099250800794283  1.0000
  N   N7        1.0  0.8775968382640656  0.3037524562899547  0.3081594723115486  1.0000
  N   N8        1.0  0.12240316154023849  0.6962475432273061  0.6918405274963754  1.0000
  N   N9        1.0  0.9993651645314247  0.41218910472704456  0.21846562273159018  1.0000
  N   N10       1.0  0.0006348354852994555  0.5878108953927016  0.7815343770750287  1.0000
  N   N11       1.0  0.42270690531713373  0.4564006042173569  0.34915907547266356  1.0000
  N   N12       1.0  0.5772930946070174  0.5435993954436759  0.6508409249391804  1.0000
  O   O1        1.0  0.7404147141897972  0.052448321143584185  0.4980803675519735  1.0000
  O   O2        1.0  0.25958528582692686  0.9475516789761618  0.5019196322546454  1.0000
  O   O3        1.0  0.009052307756330504  0.3977917273703396  0.4225597908368711  1.0000
  O   O4        1.0  0.9909476923802407  0.6022082728931784  0.5774402095736677  1.0000
  O   O5        1.0  0.12617868791817552  0.5422865667109216  0.14344478698395585  1.0000
  O   O6        1.0  0.8738213120985484  0.4577134334088245  0.856555212822663  1.0000
  O   O7        1.0  0.16663473343672314  0.6811089566659467  0.19082335574142015  1.0000
  O   O8        1.0  0.8333652665800009  0.3188910434537993  0.8091766440651988  1.0000
  Cl  Cl1       1.0  0.5220035029981415  0.679656688549689  0.2792992060026667  1.0000
  Cl  Cl2       1.0  0.4779964968061626  0.32034331096757185  0.7207007938052572  1.0000
  Cl  Cl3       1.0  0.019976727063142265  0.08915960879508204  0.32125405062038936  1.0000
  Cl  Cl4       1.0  0.9800232730734288  0.910840391468436  0.6787459497901495  1.0000
  Cl  Cl5       1.0  0.8058062499982913  0.9264303006617864  0.015410599890116491  1.0000
  Cl  Cl6       1.0  0.19419374992585972  0.0735696989992462  0.9845894005217273  1.0000
  Cl  Cl7       1.0  0.5416659430702797  0.24363412402186255  0.40358448440365574  1.0000
  Cl  Cl8       1.0  0.4583340570662913  0.7563658762416554  0.596415516006883  1.0000
  Cl  Cl9       1.0  0.2710981196533788  0.21351172151112946  0.18830977881188127  1.0000
  Cl  Cl10      1.0  0.7289018804831923  0.7864882787523885  0.8116902215986574  1.0000
  Cl  Cl11      1.0  0.5465755684323244  0.34642617101096224  0.9507520742414954  1.0000
  Cl  Cl12      1.0  0.45342443170424657  0.6535738292525556  0.04924792616904332  1.0000
