data_image0
_chemical_formula_structural       H80C44N16I32
_chemical_formula_sum              "H80 C44 N16 I32"
_cell_length_a       8.228352107264124
_cell_length_b       16.060687954375013
_cell_length_c       21.24898012126867
_cell_angle_alpha    108.60054184945938
_cell_angle_beta     94.0694612265647
_cell_angle_gamma    103.73959944459882

_space_group_name_H-M_alt    "P 1"
_space_group_IT_number       1

loop_
  _space_group_symop_operation_xyz
  'x, y, z'

loop_
  _atom_site_type_symbol
  _atom_site_label
  _atom_site_symmetry_multiplicity
  _atom_site_fract_x
  _atom_site_fract_y
  _atom_site_fract_z
  _atom_site_occupancy
  H   H1        1.0  0.9212264043450403  0.31580786086541635  0.3707555653079025  1.0000
  H   H2        1.0  0.07877359665391824  0.6841921392847438  0.6292444348292915  1.0000
  H   H3        1.0  0.10769209976553001  0.42766910568722316  0.47691901143763377  1.0000
  H   H4        1.0  0.8923078998173165  0.5723308942330786  0.5230809881975388  1.0000
  H   H5        1.0  0.021846881391688874  0.43023093411218266  0.5878608303887121  1.0000
  H   H6        1.0  0.9781531193018512  0.5697690653960572  0.41213916974644776  1.0000
  H   H7        1.0  0.8368765613131655  0.3171046407317737  0.6422053594610216  1.0000
  H   H8        1.0  0.1631234384727111  0.6828953594227631  0.3577946406771223  1.0000
  H   H9        1.0  0.6933694208507122  0.37923017187553226  0.6305301553273663  1.0000
  H   H10       1.0  0.3066305789351643  0.6207698282790045  0.36946984481077755  1.0000
  H   H11       1.0  0.48022406650566657  0.13735367478694843  0.4252722634899534  1.0000
  H   H12       1.0  0.5197759332802099  0.8626463253675882  0.5747277366481905  1.0000
  H   H13       1.0  0.401304674538619  0.08480491530777803  0.3431178419908585  1.0000
  H   H14       1.0  0.5986953264603395  0.915195084842382  0.6568821581463354  1.0000
  H   H15       1.0  0.4462877487117645  0.31933860307747297  0.651942202410206  1.0000
  H   H16       1.0  0.5537122522871942  0.6806613970726872  0.348057797726988  1.0000
  H   H17       1.0  0.3487213898631262  0.20003575090143266  0.6242189096679668  1.0000
  H   H18       1.0  0.6512786096173317  0.7999642486111838  0.3757810904681432  1.0000
  H   H19       1.0  0.2122670455591823  0.2810241286005472  0.5607901884193295  1.0000
  H   H20       1.0  0.7877329542266942  0.7189758715539895  0.4392098117188145  1.0000
  H   H21       1.0  0.40472070901775803  0.31316949233892  0.5310419832091889  1.0000
  H   H22       1.0  0.5952792907681186  0.6868305078156168  0.46895801692895506  1.0000
  H   H23       1.0  0.21377951444815269  0.12277153945604029  0.5073192948137579  1.0000
  H   H24       1.0  0.7862204853377238  0.8772284606984965  0.4926807053243862  1.0000
  H   H25       1.0  0.11360076789511693  0.21163599544428174  0.43555628514186284  1.0000
  H   H26       1.0  0.8863992318907595  0.788364004710255  0.5644437149962811  1.0000
  H   H27       1.0  0.13356825099902098  0.09959115087850244  0.39939822179293116  1.0000
  H   H28       1.0  0.8664317499999377  0.9004088492716577  0.6006017783442628  1.0000
  H   H29       1.0  0.412165421416978  0.2766406876144385  0.4188986158909828  1.0000
  H   H30       1.0  0.5878345783688985  0.7233593125400982  0.5811013842471612  1.0000
  H   H31       1.0  0.28180171032165274  0.20314307462953787  0.3413311897317425  1.0000
  H   H32       1.0  0.718198290474276  0.7968569252863872  0.65866880990248  1.0000
  H   H33       1.0  0.5704335919451549  0.19469610186242728  0.5452475073797185  1.0000
  H   H34       1.0  0.42956640784072175  0.8053038982921096  0.45475249275842544  1.0000
  H   H35       1.0  0.616350500423739  0.1978895823221664  0.6245005106927016  1.0000
  H   H36       1.0  0.38364949936213744  0.8021104178323704  0.37549948944544237  1.0000
  H   H37       1.0  0.6004482306267475  0.21971829447221078  0.32505541480971983  1.0000
  H   H38       1.0  0.3995517691591291  0.7802817056823261  0.6749445853284242  1.0000
  H   H39       1.0  0.6792222069248882  0.13274551143041777  0.3397815956385236  1.0000
  H   H40       1.0  0.32077779255556976  0.8672544880821987  0.6602184044975863  1.0000
  H   H41       1.0  0.9612254531774084  0.2963489059893381  0.8728923804681522  1.0000
  H   H42       1.0  0.038774547821550334  0.703651094160822  0.12710761966904177  1.0000
  H   H43       1.0  0.14001389570834918  0.4298436868265484  0.9703902158845263  1.0000
  H   H44       1.0  0.859986104985191  0.5701563126816916  0.02960978425063363  1.0000
  H   H45       1.0  0.04762334220562112  0.4635668216290035  0.08321741308658344  1.0000
  H   H46       1.0  0.9523766573772254  0.5364331782912982  0.9167825865485891  1.0000
  H   H47       1.0  0.8570849753091774  0.3822498505729717  0.15455177516869983  1.0000
  H   H48       1.0  0.1429150256897813  0.6177501495771884  0.8454482249684941  1.0000
  H   H49       1.0  0.7045561509451018  0.42583184508315636  0.12245508815726311  1.0000
  H   H50       1.0  0.2954438488407748  0.5741681550713804  0.877544911980881  1.0000
  H   H51       1.0  0.6499607514494676  0.2626427785119505  0.14910934242089052  1.0000
  H   H52       1.0  0.35003924833640887  0.7373572216425862  0.8508906577172534  1.0000
  H   H53       1.0  0.6075835799145402  0.2340103905610028  0.06543505820382547  1.0000
  H   H54       1.0  0.3924164198713364  0.7659896095935339  0.9345649419343185  1.0000
  H   H55       1.0  0.45999942737308874  0.37088101556370556  0.15023149718071255  1.0000
  H   H56       1.0  0.5400005724127878  0.6291189845908313  0.8497685029574316  1.0000
  H   H57       1.0  0.3771317296273465  0.2534485425118576  0.1389503883570835  1.0000
  H   H58       1.0  0.6228682699555002  0.7465514574084441  0.8610496112780891  1.0000
  H   H59       1.0  0.23254776885602949  0.3036065758052156  0.053952455980429255  1.0000
  H   H60       1.0  0.7674522316344806  0.6963934234687893  0.9460475436517592  1.0000
  H   H61       1.0  0.42613064196818773  0.3280145795475237  0.023102520138335064  1.0000
  H   H62       1.0  0.5738693578176889  0.671985420607013  0.9768974799998089  1.0000
  H   H63       1.0  0.2522429242649824  0.14614392404253843  0.02592059289689948  1.0000
  H   H64       1.0  0.7477570755208941  0.8538560761119983  0.9740794072412444  1.0000
  H   H65       1.0  0.145944749044651  0.20253630945955273  0.9318821886074852  1.0000
  H   H66       1.0  0.8540552517512777  0.7974636904563726  0.0681178110267373  1.0000
  H   H67       1.0  0.17915266485301629  0.09296410553327475  0.9143919951101224  1.0000
  H   H68       1.0  0.8208473359429124  0.9070358943826504  0.08560800452410021  1.0000
  H   H69       1.0  0.3250384311067102  0.174452785030872  0.8412737357149338  1.0000
  H   H70       1.0  0.6749615698922485  0.8255472151192882  0.1587262644222601  1.0000
  H   H71       1.0  0.44580175277791445  0.2644021924853611  0.9149170668627212  1.0000
  H   H72       1.0  0.5541982470079619  0.7355978076691756  0.08508293327542271  1.0000
  H   H73       1.0  0.4553638958956599  0.07072046439339413  0.867633942797695  1.0000
  H   H74       1.0  0.5446361038902167  0.9292795357611426  0.13236605734044896  1.0000
  H   H75       1.0  0.5244249502289018  0.14258638765123552  0.946867231598636  1.0000
  H   H76       1.0  0.47557504955697477  0.8574136125033013  0.05313276853950807  1.0000
  H   H77       1.0  0.647135090871102  0.1908150068726678  0.832338134484948  1.0000
  H   H78       1.0  0.35286490891477434  0.8091849932818689  0.16766186565319588  1.0000
  H   H79       1.0  0.7328991403761909  0.11970122037395886  0.865797888596481  1.0000
  H   H80       1.0  0.2671008594096856  0.880298779780578  0.13420211154166303  1.0000
  C   C1        1.0  0.7396847357620954  0.25818846132485684  0.4250746364870793  1.0000
  C   C2        1.0  0.26031526382075115  0.7418115385954449  0.5749253631480932  1.0000
  C   C3        1.0  0.8877680037484011  0.3176948223159121  0.41980111190019753  1.0000
  C   C4        1.0  0.11223199725055756  0.6823051778342482  0.5801988882369964  1.0000
  C   C5        1.0  0.9907340772341028  0.3801540653628122  0.47892626124722565  1.0000
  C   C6        1.0  0.00926592255177379  0.6198459347917246  0.5210737388909183  1.0000
  C   C7        1.0  0.9435964262373601  0.38174810936600767  0.5409621579352595  1.0000
  C   C8        1.0  0.05640357354851644  0.618251890788529  0.4590378422028845  1.0000
  C   C9        1.0  0.7937487600204197  0.31895597876554643  0.5412981208332321  1.0000
  C   C10       1.0  0.2062512406731203  0.6810440207426934  0.45870187930192774  1.0000
  C   C11       1.0  0.7339345022123862  0.31759986554618624  0.6066377905663436  1.0000
  C   C12       1.0  0.2660654987865724  0.682400134603974  0.3933622095708503  1.0000
  C   C13       1.0  0.4212776074592175  0.2554186383089675  0.6091640436116215  1.0000
  C   C14       1.0  0.5787223923266591  0.7445813618455693  0.3908359565265226  1.0000
  C   C15       1.0  0.32703813399592996  0.2598651287719164  0.5469860197044868  1.0000
  C   C16       1.0  0.6729618655869166  0.7401348711483854  0.4530139799306857  1.0000
  C   C17       1.0  0.20533689785505768  0.17045563505118144  0.4290449349984119  1.0000
  C   C18       1.0  0.7946631029408711  0.8295443648647437  0.5709550646358106  1.0000
  C   C19       1.0  0.3376757878700644  0.2061365017577642  0.39061571599485173  1.0000
  C   C20       1.0  0.6623242119158123  0.7938634983967727  0.6093842841432924  1.0000
  C   C21       1.0  0.6235096605061594  0.18896301784154543  0.36299261089454815  1.0000
  C   C22       1.0  0.3764903392797172  0.8110369823129915  0.6370073892435959  1.0000
  C   C23       1.0  0.779218416252118  0.2576432628712318  0.9344309166284315  1.0000
  C   C24       1.0  0.22078158353375857  0.742356737283305  0.06556908350971255  1.0000
  C   C25       1.0  0.9253739209261465  0.31203294932151565  0.9229249032632882  1.0000
  C   C26       1.0  0.07462607885973026  0.6879670508330212  0.07707509687485577  1.0000
  C   C27       1.0  0.023593618532302806  0.38651960323583606  0.9770827246059874  1.0000
  C   C28       1.0  0.9764063812535737  0.6134803969187007  0.02291727553215642  1.0000
  C   C29       1.0  0.9726601354121329  0.40555013331586365  0.04015169368786519  1.0000
  C   C30       1.0  0.027339865383795767  0.5944498666000615  0.9598483059463574  1.0000
  C   C31       1.0  0.8234445364212272  0.34793692279213173  0.046603851637087565  1.0000
  C   C32       1.0  0.1765554640692831  0.6520630764818731  0.953396147995101  1.0000
  C   C33       1.0  0.7561740095459366  0.3664851749336286  0.11242754378804579  1.0000
  C   C34       1.0  0.24382599023993987  0.6335148252209082  0.8875724563500982  1.0000
  C   C35       1.0  0.44482781552215567  0.3011211518219282  0.11603582464890737  1.0000
  C   C36       1.0  0.5551721842637208  0.6988788483326085  0.8839641754892366  1.0000
  C   C37       1.0  0.3514583403872234  0.2836561292708617  0.04706051000105334  1.0000
  C   C38       1.0  0.6485416593986532  0.716343870883675  0.9529394901370906  1.0000
  C   C39       1.0  0.243410377707143  0.16666206339451464  0.9355376278643659  1.0000
  C   C40       1.0  0.7565896232918156  0.8333379367556456  0.06446237227282789  1.0000
  C   C41       1.0  0.3777510779016128  0.1915421085021496  0.8940555467830338  1.0000
  C   C42       1.0  0.6222489218842638  0.8084578916523872  0.10594445335511012  1.0000
  C   C43       1.0  0.6705574654506262  0.17514289294169477  0.8782724325495491  1.0000
  C   C44       1.0  0.3294425343352503  0.8248571072128419  0.12172756758859489  1.0000
  N   N1        1.0  0.6950473950325466  0.25849543417710596  0.48463642075580793  1.0000
  N   N2        1.0  0.30495260596641205  0.7415045659730543  0.515363579381386  1.0000
  N   N3        1.0  0.45797087308522366  0.14825316415411874  0.3799384869776159  1.0000
  N   N4        1.0  0.5420291267006528  0.851746836000418  0.620061513160528  1.0000
  N   N5        1.0  0.2885010889491548  0.17163785605707557  0.4925938445027521  1.0000
  N   N6        1.0  0.7114989106336918  0.828362143863226  0.5074061551324204  1.0000
  N   N7        1.0  0.5878542021311497  0.23584796099687463  0.5958049900438827  1.0000
  N   N8        1.0  0.4121457976547268  0.764152039157662  0.40419501009426134  1.0000
  N   N9        1.0  0.7303998851378484  0.2750941032858906  0.9950391331995673  1.0000
  N   N10       1.0  0.2696001158611104  0.7249058968642696  0.004960866937626765  1.0000
  N   N11       1.0  0.6177467080261885  0.2861456509221767  0.11127282914972247  1.0000
  N   N12       1.0  0.3822532917596881  0.7138543492323601  0.8887271709884216  1.0000
  N   N13       1.0  0.32311874868578433  0.18831700165623377  0.004746601467351081  1.0000
  N   N14       1.0  0.6768812511000922  0.8116829984983032  0.995253398670793  1.0000
  N   N15       1.0  0.5045818672939523  0.13949957548689584  0.8970374515528917  1.0000
  N   N16       1.0  0.49541813370500637  0.8605004246632644  0.10296254858430222  1.0000
  I   I1        1.0  0.22905702066562467  0.4663289719468333  0.23298288274365272  1.0000
  I   I2        1.0  0.7709429788148333  0.5336710275657832  0.7670171173924573  1.0000
  I   I3        1.0  0.14429235430852996  0.2935974594021615  0.25675559921339075  1.0000
  I   I4        1.0  0.8557076461819801  0.7064025398718434  0.7432444004187977  1.0000
  I   I5        1.0  0.3303579864855725  0.6383044405477217  0.2071961870590785  1.0000
  I   I6        1.0  0.6696420145133861  0.3616955596024385  0.7928038130781154  1.0000
  I   I7        1.0  0.8026998938043224  0.5875218414048898  0.2718067351437817  1.0000
  I   I8        1.0  0.1973001057785244  0.412478158515412  0.728193264491391  1.0000
  I   I9        1.0  0.7031272405943659  0.40440625170882644  0.2944356229835539  1.0000
  I   I10       1.0  0.29687275919151057  0.5955937484457102  0.7055643771545901  1.0000
  I   I11       1.0  0.8846674857484462  0.7636478690536032  0.2578036295768836  1.0000
  I   I12       1.0  0.11533251403743042  0.23635213110093362  0.7421963705612604  1.0000
  I   I13       1.0  0.1686644040823094  0.04052231630306796  0.21636137657719218  1.0000
  I   I14       1.0  0.8313355957035672  0.9594776838514688  0.7836386235609518  1.0000
  I   I15       1.0  0.5055755744534318  0.09397690396060888  0.1642029920494736  1.0000
  I   I16       1.0  0.4944244263424967  0.9060230959553163  0.8357970075847488  1.0000
  I   I17       1.0  0.8583084113083669  0.9950612025785625  0.2645649676503073  1.0000
  I   I18       1.0  0.14169158847750957  0.004938797575974298  0.7354350324878367  1.0000
  I   I19       1.0  0.4617521461548216  0.9150896043057279  0.30749642746390227  1.0000
  I   I20       1.0  0.538247853631055  0.08491039584880881  0.6925035726742418  1.0000
  I   I21       1.0  0.697713516785675  0.01826422297505257  0.44353484370593216  1.0000
  I   I22       1.0  0.3022864830002016  0.9817357771794841  0.5564651564322118  1.0000
  I   I23       1.0  0.9042447548279198  0.10909002902085571  0.572848741188848  1.0000
  I   I24       1.0  0.09575524617103891  0.8909099711293045  0.4271512589483458  1.0000
  I   I25       1.0  0.7598732373173703  0.042577135239558174  0.9855679033774147  1.0000
  I   I26       1.0  0.24012676246850623  0.9574228649149787  0.014432096760729254  1.0000
  I   I27       1.0  0.9541104709766739  0.16575698319716728  0.10968501723953503  1.0000
  I   I28       1.0  0.04588952860617267  0.8342430167231344  0.8903149823956377  1.0000
  I   I29       1.0  0.5368252045683412  0.45675373009839626  0.9345470599465779  1.0000
  I   I30       1.0  0.4631747950145054  0.5432462698219055  0.06545293968859466  1.0000
  I   I31       1.0  0.5511823405965419  0.4713275038484136  0.4354648298612209  1.0000
  I   I32       1.0  0.44881765918933464  0.5286724963061231  0.564535170276923  1.0000
