data_image0
_chemical_formula_structural       H16C32O8S16I16
_chemical_formula_sum              "H16 C32 O8 S16 I16"
_cell_length_a       11.087096943480391
_cell_length_b       11.673112553211457
_cell_length_c       13.363977552527162
_cell_angle_alpha    90.0
_cell_angle_beta     110.33026568407038
_cell_angle_gamma    90.0

_space_group_name_H-M_alt    "P 1"
_space_group_IT_number       1

loop_
  _space_group_symop_operation_xyz
  'x, y, z'

loop_
  _atom_site_type_symbol
  _atom_site_label
  _atom_site_symmetry_multiplicity
  _atom_site_fract_x
  _atom_site_fract_y
  _atom_site_fract_z
  _atom_site_occupancy
  H   H1        1.0  0.440253911326103  0.8882627339310099  0.9192149313896057  1.0000
  H   H2        1.0  0.05974608851319332  0.38826273364023295  0.08078506876368578  1.0000
  H   H3        1.0  0.5597460887377057  0.11173726579387436  0.08078506842315035  1.0000
  H   H4        1.0  0.9402539118809187  0.6117372660846513  0.9192149318470537  1.0000
  H   H5        1.0  0.3359158858628467  0.7751263640056922  0.9313814182540421  1.0000
  H   H6        1.0  0.1640841139764496  0.27512636457158496  0.06861858189924955  1.0000
  H   H7        1.0  0.6640841142009619  0.22487363571919194  0.06861858155871411  1.0000
  H   H8        1.0  0.8359158864176622  0.7248736360099688  0.9313814187114898  1.0000
  H   H9        1.0  0.46431162969815837  0.630615640553796  0.8742944835714626  1.0000
  H   H10       1.0  0.03568837014113788  0.13061564026301908  0.12570551658182905  1.0000
  H   H11       1.0  0.5356883706959534  0.36938435917108825  0.12570551703927688  1.0000
  H   H12       1.0  0.9643116290192936  0.8693843594618651  0.8742944832274973  1.0000
  H   H13       1.0  0.5685745611012084  0.7104112088526504  0.9848948873189525  1.0000
  H   H14       1.0  0.9314254391871125  0.21041120941854308  0.015105112153268232  1.0000
  H   H15       1.0  0.4314254389626002  0.2895887908722338  0.015105112493803663  1.0000
  H   H16       1.0  0.06857456087669606  0.7895887911630106  0.984894887659488  1.0000
  C   C1        1.0  0.3873701208249608  0.913124343778176  0.24606927978849255  1.0000
  C   C2        1.0  0.11262987958740979  0.413124343487399  0.7539307195702457  1.0000
  C   C3        1.0  0.612629879238848  0.08687565680337782  0.7539307200242638  1.0000
  C   C4        1.0  0.887370120476399  0.5868756562374852  0.24606928024251046  1.0000
  C   C5        1.0  0.5126457892141988  0.8812735817551787  0.27890221489296196  1.0000
  C   C6        1.0  0.9873542110741224  0.3812735823210714  0.7210977845792589  1.0000
  C   C7        1.0  0.4873542108496099  0.11872641796970554  0.7210977849197943  1.0000
  C   C8        1.0  0.012645788989686367  0.6187264182604824  0.2789022152334974  1.0000
  C   C9        1.0  0.4495278301670506  0.8707582903587782  0.4468682260782356  1.0000
  C   C10       1.0  0.05047216967224569  0.37075829006800126  0.553131774075056  1.0000
  C   C11       1.0  0.5504721698967581  0.12924171022277567  0.5531317737345206  1.0000
  C   C12       1.0  0.9495278298184887  0.629241709656883  0.4468682265322536  1.0000
  C   C13       1.0  0.4496743972458849  0.8498702299645589  0.5493498679892218  1.0000
  C   C14       1.0  0.050325602593411414  0.3498702305304515  0.4506501321640698  1.0000
  C   C15       1.0  0.5503256019145464  0.15012976976032538  0.45065013182010444  1.0000
  C   C16       1.0  0.9496743978007004  0.6501297700511022  0.5493498684466697  1.0000
  C   C17       1.0  0.38874987937134975  0.8212985385258222  0.7134069510426964  1.0000
  C   C18       1.0  0.11125012046794666  0.32129853909171496  0.2865930491105954  1.0000
  C   C19       1.0  0.6112501206924591  0.1787014611990619  0.28659304877006003  1.0000
  C   C20       1.0  0.8887498786924846  0.6787014614898388  0.7134069506987308  1.0000
  C   C21       1.0  0.5158994272755287  0.7897705027665209  0.7436167308390931  1.0000
  C   C22       1.0  0.9841005733430955  0.28977050333241366  0.2563832694311109  1.0000
  C   C23       1.0  0.4841005727882799  0.21022949695836324  0.2563832689736631  1.0000
  C   C24       1.0  0.0158994267207133  0.7102294972491401  0.7436167303816453  1.0000
  C   C25       1.0  0.40015080450725427  0.803528031383498  0.8899504096412549  1.0000
  C   C26       1.0  0.09984919590511623  0.3035280310927211  0.11004958971748324  1.0000
  C   C27       1.0  0.5998491955565544  0.19647196834138625  0.11004959017150116  1.0000
  C   C28       1.0  0.9001508041586924  0.6964719686321632  0.889950410095273  1.0000
  C   C29       1.0  0.504129469266768  0.7159372576854661  0.9016971015075415  1.0000
  C   C30       1.0  0.9958705313518562  0.21593725825135873  0.0983028987626625  1.0000
  C   C31       1.0  0.49587053079704063  0.28406274203941817  0.0983028983052147  1.0000
  C   C32       1.0  0.004129469042255602  0.784062742330195  0.9016971018480768  1.0000
  O   O1        1.0  0.3185874359481824  0.8162865025556985  0.7780710253382954  1.0000
  O   O2        1.0  0.1814125635608108  0.31628650226492155  0.22192897401701303  1.0000
  O   O3        1.0  0.6814125641156263  0.18371349716918575  0.2219289744744608  1.0000
  O   O4        1.0  0.8185874355996204  0.6837134974599627  0.7780710257923132  1.0000
  O   O5        1.0  0.585456713013394  0.7484873696001727  0.8405194092992653  1.0000
  O   O6        1.0  0.9145432872749272  0.24848736930939583  0.15948059017295554  1.0000
  O   O7        1.0  0.4145432870504148  0.25151263098138105  0.15948059051349098  1.0000
  O   O8        1.0  0.08545671278888148  0.7515126304154884  0.8405194096398007  1.0000
  S   S1        1.0  0.3151588981295321  0.9154528701138979  0.3424385403458568  1.0000
  S   S2        1.0  0.18484110261314166  0.4154528698231211  0.6575614598108648  1.0000
  S   S3        1.0  0.6848411019342766  0.08454712961098627  0.6575614594668993  1.0000
  S   S4        1.0  0.815158897450667  0.5845471299017632  0.3424385400018915  1.0000
  S   S5        1.0  0.5849093098927057  0.848734049709332  0.4130839582099232  1.0000
  S   S6        1.0  0.9150906907259184  0.34873405027522464  0.5869160420602807  1.0000
  S   S7        1.0  0.415090690501406  0.15126595001555226  0.5869160424008162  1.0000
  S   S8        1.0  0.08490930933789027  0.6512659503063292  0.4130839577524755  1.0000
  S   S9        1.0  0.3150527154841107  0.8708894858726582  0.5843279275396455  1.0000
  S   S10       1.0  0.18494728525856308  0.37088948643855096  0.415672072617076  1.0000
  S   S11       1.0  0.6849472845796981  0.1291105138522259  0.41567207227311076  1.0000
  S   S12       1.0  0.8150527151355489  0.6291105141430028  0.5843279279936635  1.0000
  S   S13       1.0  0.5878348698027155  0.8032616448489875  0.6483059431530641  1.0000
  S   S14       1.0  0.9121651308159089  0.30326164455821064  0.3516940571171399  1.0000
  S   S15       1.0  0.4121651302610933  0.1967383557325662  0.35169405665969217  1.0000
  S   S16       1.0  0.08783486924789986  0.6967383551666736  0.6483059426956164  1.0000
  I   I1        1.0  0.27358888430114164  0.9729013721259432  0.09291996710857917  1.0000
  I   I2        1.0  0.2264111155381547  0.4729013718351664  0.9070800330447125  1.0000
  I   I3        1.0  0.7264111157626671  0.027098627598940946  0.907080032704177  1.0000
  I   I4        1.0  0.7735888845256541  0.5270986278897178  0.09291996676804373  1.0000
  I   I5        1.0  0.6433295113370802  0.8781992089316145  0.1959884254096208  1.0000
  I   I6        1.0  0.8566704883781666  0.37819920864083756  0.8040115748571535  1.0000
  I   I7        1.0  0.3566704878233511  0.12180079079326978  0.8040115743997055  1.0000
  I   I8        1.0  0.14332951201594524  0.6218007910840466  0.19598842575358613  1.0000
  I   I9        1.0  0.4061332033076545  0.5924429519954723  0.1345982220357601  1.0000
  I   I10       1.0  0.09386679620133868  0.09244295170469538  0.8654017773195484  1.0000
  I   I11       1.0  0.5938667967561542  0.4075570485860815  0.8654017777769961  1.0000
  I   I12       1.0  0.9061332038624701  0.9075570480201889  0.1345982224932079  1.0000
  I   I13       1.0  0.4805935562228408  0.5217893841282543  0.3909599363303596  1.0000
  I   I14       1.0  0.019406443286152337  0.02178938469414692  0.6090400630249488  1.0000
  I   I15       1.0  0.5194064438409679  0.47821061559663  0.6090400634823967  1.0000
  I   I16       1.0  0.9805935558742789  0.9782106158874069  0.3909599367843775  1.0000
