data_image0
_chemical_formula_structural       H42C80N18Br2
_chemical_formula_sum              "H42 C80 N18 Br2"
_cell_length_a       8.22935332717627
_cell_length_b       12.959500396756427
_cell_length_c       16.041553973458836
_cell_angle_alpha    82.91091849466483
_cell_angle_beta     74.93974634426213
_cell_angle_gamma    72.18116580421746

_space_group_name_H-M_alt    "P 1"
_space_group_IT_number       1

loop_
  _space_group_symop_operation_xyz
  'x, y, z'

loop_
  _atom_site_type_symbol
  _atom_site_label
  _atom_site_symmetry_multiplicity
  _atom_site_fract_x
  _atom_site_fract_y
  _atom_site_fract_z
  _atom_site_occupancy
  H   H1        1.0  0.5011509473876002  0.6977641178766903  0.8312595261829494  1.0000
  H   H2        1.0  0.49884905353097864  0.30223588191869455  0.16874047374084306  1.0000
  H   H3        1.0  0.06360667087413394  0.5879108783710625  0.989533763073938  1.0000
  H   H4        1.0  0.9363933288284725  0.41208912142401094  0.010466236851760995  1.0000
  H   H5        1.0  0.630729768871235  0.6709896794709321  0.9560328924970689  1.0000
  H   H6        1.0  0.36927023204734377  0.32901032032445277  0.04396710742672347  1.0000
  H   H7        1.0  0.1922326031321621  0.5612712413934938  0.11402383012788156  1.0000
  H   H8        1.0  0.807767397484439  0.43872875835671843  0.8859761704421788  1.0000
  H   H9        1.0  0.13685553613441223  0.17496260701640437  0.9332196016324865  1.0000
  H   H10       1.0  0.8631444631749051  0.8250373935888523  0.06678039829833629  1.0000
  H   H11       1.0  0.684003846205234  0.07920244281403331  0.09169392569988968  1.0000
  H   H12       1.0  0.3159961534973725  0.92079755698104  0.9083060742258092  1.0000
  H   H13       1.0  0.26591763152989706  0.14405719785949983  0.05789076378205876  1.0000
  H   H14       1.0  0.7340823693886818  0.855942801935885  0.9421092361417337  1.0000
  H   H15       1.0  0.8098774792534547  0.05310761224438373  0.21726770873184537  1.0000
  H   H16       1.0  0.1901225204491518  0.9468923875506896  0.7827322911938536  1.0000
  H   H17       1.0  0.8087198881514409  0.8378619876495352  0.4878469444893867  1.0000
  H   H18       1.0  0.1912801115511654  0.16213801214553808  0.5121530554363123  1.0000
  H   H19       1.0  0.646366692357462  0.8026042513075892  0.6393119849588864  1.0000
  H   H20       1.0  0.3536333081678282  0.19739574929797918  0.3606880149700297  1.0000
  H   H21       1.0  0.7761337782714497  0.6315436241174682  0.7207604400035426  1.0000
  H   H22       1.0  0.22386622234515136  0.3684563756327439  0.27923956056651783  1.0000
  H   H23       1.0  0.012383467010580584  0.4602896035215142  0.7246598436174537  1.0000
  H   H24       1.0  0.9876165326920257  0.5397103962735592  0.27534015630824527  1.0000
  H   H25       1.0  0.29373392260443987  0.33360451966833937  0.6517603565455622  1.0000
  H   H26       1.0  0.7062660767048775  0.6663954809369174  0.3482396433852606  1.0000
  H   H27       1.0  0.439216112318554  0.3754444318284599  0.49946497767296644  1.0000
  H   H28       1.0  0.5607838886000249  0.624555567966925  0.5005350222508258  1.0000
  H   H29       1.0  0.3097623963260153  0.5416595006220993  0.4204520252956658  1.0000
  H   H30       1.0  0.6902376030746132  0.45834049912780134  0.5795479752763012  1.0000
  H   H31       1.0  0.9869018886984553  0.7810705456849075  0.37002970687693815  1.0000
  H   H32       1.0  0.013098112220123439  0.21892945411047737  0.6299702930468541  1.0000
  H   H33       1.0  0.13751044776851912  0.6510869366339961  0.359412216515998  1.0000
  H   H34       1.0  0.8624895515407983  0.34891306397126076  0.6405877834148247  1.0000
  H   H35       1.0  0.1874363621443269  0.7940519512864425  0.5304124745283019  1.0000
  H   H36       1.0  0.8125636375582795  0.2059480485086309  0.469587525397397  1.0000
  H   H37       1.0  0.4111598704556942  0.8865887809931451  0.5157443586697176  1.0000
  H   H38       1.0  0.5888401304628844  0.11341121880223996  0.4842556412540747  1.0000
  H   H39       1.0  0.544875823076692  0.8618423833989552  0.2382190828894557  1.0000
  H   H40       1.0  0.45512417623262547  0.13815761720630151  0.7617809170413672  1.0000
  H   H41       1.0  0.31955381967010754  0.766291119678387  0.25370776155851144  1.0000
  H   H42       1.0  0.6804461800324989  0.2337088801166865  0.7462922383671875  1.0000
  C   C1        1.0  0.27984593183806383  0.6909999047655808  0.7444149796914962  1.0000
  C   C2        1.0  0.7201540674712535  0.30900009583967586  0.2555850202393267  1.0000
  C   C3        1.0  0.19899580070730918  0.65686051596572  0.8278754155021857  1.0000
  C   C4        1.0  0.8010041989952971  0.3431394838293535  0.17212458442351325  1.0000
  C   C5        1.0  0.036679421546604064  0.6362761889790737  0.8360559449019975  1.0000
  C   C6        1.0  0.9633205790699972  0.3637238107711385  0.16394405566806275  1.0000
  C   C7        1.0  0.435599494567143  0.6667870451540201  0.8929039143103356  1.0000
  C   C8        1.0  0.5644005059581471  0.3332129554515482  0.10709608561858062  1.0000
  C   C9        1.0  0.27420598817038233  0.6424012778925532  0.8998298973064546  1.0000
  C   C10       1.0  0.7257940115322239  0.35759872190252023  0.10017010261924436  1.0000
  C   C11       1.0  0.18827749069347954  0.6050030275513546  0.9822876766874049  1.0000
  C   C12       1.0  0.8117225098318102  0.39499697305421383  0.01771232324151132  1.0000
  C   C13       1.0  0.6568244735165033  0.6219197113539596  0.11305334907045239  1.0000
  C   C14       1.0  0.34317552618610303  0.37808028844111374  0.8869466508552466  1.0000
  C   C15       1.0  0.4971251020264751  0.599557549698811  0.11707773054385565  1.0000
  C   C16       1.0  0.5028748988921039  0.4004424500965739  0.8829222693799367  1.0000
  C   C17       1.0  0.41679801335973415  0.561234344387787  0.19871559370927966  1.0000
  C   C18       1.0  0.5832019863428719  0.4387656554072865  0.8012844062164194  1.0000
  C   C19       1.0  0.5068808645401905  0.65302038113256  0.9629753279874356  1.0000
  C   C20       1.0  0.4931191363783883  0.346979618662825  0.03702467193635669  1.0000
  C   C21       1.0  0.42176050673566295  0.614625918119065  0.04516896076358118  1.0000
  C   C22       1.0  0.5782394934876495  0.38537408244133053  0.9548310398116029  1.0000
  C   C23       1.0  0.259857096565391  0.5907422534228696  0.052264029819601224  1.0000
  C   C24       1.0  0.7401429043531879  0.40925774637251544  0.9477359701041911  1.0000
  C   C25       1.0  0.9183930606911646  0.18472461682993863  0.8497336367946469  1.0000
  C   C26       1.0  0.08160694022741431  0.8152753829654463  0.15026636312914546  1.0000
  C   C27       1.0  0.8291111727106771  0.14589789383927604  0.9292710842230869  1.0000
  C   C28       1.0  0.1708888282079017  0.8541021059561088  0.07072891570070536  1.0000
  C   C29       1.0  0.6673582172163903  0.12814498916282147  0.9302393776798911  1.0000
  C   C30       1.0  0.33264178248621584  0.871855010632252  0.06976062224580787  1.0000
  C   C31       1.0  0.06689689703012139  0.14720850691345314  0.9951318316871836  1.0000
  C   C32       1.0  0.9331031026724848  0.8527914928816204  0.004868168238515392  1.0000
  C   C33       1.0  0.9006881860301762  0.12845303973810143  0.0022611885575458267  1.0000
  C   C34       1.0  0.09931181367243018  0.8715469600569719  0.9977388113681531  1.0000
  C   C35       1.0  0.8110260652592626  0.09315727534830208  0.08460027411280593  1.0000
  C   C36       1.0  0.1889739344433438  0.9068427244467712  0.915399725812893  1.0000
  C   C37       1.0  0.28721807280448175  0.10117560521192874  0.2123508993985598  1.0000
  C   C38       1.0  0.7127819277208083  0.8988243953936396  0.7876491005303563  1.0000
  C   C39       1.0  0.12411858352136583  0.08181386471594733  0.2195982059181515  1.0000
  C   C40       1.0  0.875881417397213  0.9181861350794377  0.7804017940056409  1.0000
  C   C41       1.0  0.04234158709578743  0.04888771423538222  0.30302704077343545  1.0000
  C   C42       1.0  0.9576584126068189  0.9511122855596911  0.6969729591522635  1.0000
  C   C43       1.0  0.1379520582739731  0.13140050498709144  0.06521232954855755  1.0000
  C   C44       1.0  0.8620479410353445  0.8685994956181653  0.9347876703822653  1.0000
  C   C45       1.0  0.047899559500240864  0.09704026072713698  0.1479240709045828  1.0000
  C   C46       1.0  0.9521004402023654  0.9029597390679365  0.8520759290211163  1.0000
  C   C47       1.0  0.8817014154487137  0.07867450654526613  0.15501032635275544  1.0000
  C   C48       1.0  0.11829858546986517  0.9213254932501189  0.8449896735710369  1.0000
  C   C49       1.0  0.8574550930266661  0.7646997210857965  0.5261851620841801  1.0000
  C   C50       1.0  0.1425449078919126  0.23530027870958842  0.4738148378396122  1.0000
  C   C51       1.0  0.769378180124525  0.7442937996906723  0.6104430790584839  1.0000
  C   C52       1.0  0.23062181927610373  0.2557062000592284  0.389556921513483  1.0000
  C   C53       1.0  0.8406638406412471  0.6500513617948689  0.6548319865115906  1.0000
  C   C54       1.0  0.1593361586680706  0.34994863881038774  0.34516801341923214  1.0000
  C   C55       1.0  0.00043028506533904605  0.5760163695777214  0.6152616162612508  1.0000
  C   C56       1.0  0.9995697143352894  0.42398363017217927  0.38473838431071616  1.0000
  C   C57       1.0  0.07866292421936685  0.4784630669896547  0.6587937038784178  1.0000
  C   C58       1.0  0.9213370763972342  0.5215369327605576  0.34120629669164243  1.0000
  C   C59       1.0  0.23453978211426885  0.40821344541453697  0.6179011116844496  1.0000
  C   C60       1.0  0.76546021880431  0.5917865543808479  0.3820988882393427  1.0000
  C   C61       1.0  0.31694480971580824  0.4321515784347168  0.5318001998369253  1.0000
  C   C62       1.0  0.6830551899867983  0.5678484213603566  0.4681998000887736  1.0000
  C   C63       1.0  0.24475894269743578  0.5260850967518594  0.48701229679139957  1.0000
  C   C64       1.0  0.7552410579191651  0.47391490299835287  0.5129877037786608  1.0000
  C   C65       1.0  0.08595934698854377  0.5992420094458142  0.5282975209335551  1.0000
  C   C66       1.0  0.9140406527140625  0.40075799034925913  0.47170247899214385  1.0000
  C   C67       1.0  0.09084097450161636  0.7236602842858628  0.39746384244482713  1.0000
  C   C68       1.0  0.9091590252009899  0.27633971550921055  0.6025361574808717  1.0000
  C   C69       1.0  0.23672628066991191  0.7733624196558798  0.3927077708834623  1.0000
  C   C70       1.0  0.7632737198553782  0.22663758094968844  0.6072922290454538  1.0000
  C   C71       1.0  0.26496841138431854  0.8067954762421433  0.46585113490953095  1.0000
  C   C72       1.0  0.7350315895342603  0.19320452355324175  0.5341488650142613  1.0000
  C   C73       1.0  0.392242192103066  0.8601159875322115  0.45807151812195707  1.0000
  C   C74       1.0  0.6077578088155128  0.13988401226317354  0.5419284818018352  1.0000
  C   C75       1.0  0.4895657171454203  0.880751045491028  0.3762221441129699  1.0000
  C   C76       1.0  0.5104342822552081  0.11924895425887264  0.6237778564589971  1.0000
  C   C77       1.0  0.4667761665343932  0.8464369765757482  0.30197523764353984  1.0000
  C   C78       1.0  0.5332238331682131  0.15356302321932525  0.6980247622821593  1.0000
  C   C79       1.0  0.34032938696607773  0.7922366844168555  0.3111542183165352  1.0000
  C   C80       1.0  0.6596706127365288  0.2077633153782178  0.6888457816091638  1.0000
  N   N1        1.0  0.34343098112176573  0.719518636780319  0.6746806016620019  1.0000
  N   N2        1.0  0.6565690194035244  0.28048136382524935  0.3253193982669142  1.0000
  N   N3        1.0  0.9008682434581466  0.6206729611289835  0.842750603888256  1.0000
  N   N4        1.0  0.09913175746043223  0.37932703866640144  0.15724939603553628  1.0000
  N   N5        1.0  0.7897530590602555  0.637961051261003  0.11238885953762046  1.0000
  N   N6        1.0  0.21024694064235094  0.3620389485340703  0.8876111403880784  1.0000
  N   N7        1.0  0.35303478133355776  0.5297348281321143  0.26728216956426415  1.0000
  N   N8        1.0  0.6469652183690484  0.47026517166295917  0.7327178303614348  1.0000
  N   N9        1.0  0.9934070741786224  0.2186212934648222  0.7850567977045625  1.0000
  N   N10       1.0  0.006592926739956368  0.7813787063305628  0.21494320221922983  1.0000
  N   N11       1.0  0.5337560956606272  0.115137499019479  0.9280851002469706  1.0000
  N   N12       1.0  0.46624390404197935  0.8848625007755944  0.07191489967872855  1.0000
  N   N13       1.0  0.4208410715310927  0.11812608203588344  0.20872569588760134  1.0000
  N   N14       1.0  0.5791589277782248  0.8818739185693731  0.7912743040432215  1.0000
  N   N15       1.0  0.9764739950414093  0.02201398365496823  0.3728616765351934  1.0000
  N   N16       1.0  0.02352600466119685  0.9779860161401053  0.6271383233905056  1.0000
  N   N17       1.0  0.007664969751918533  0.6946634867470476  0.48661747398886923  1.0000
  N   N18       1.0  0.9923350311666602  0.3053365130483373  0.5133825259349232  1.0000
  Br  Br1       1.0  0.6587492731533325  0.9568255018688061  0.3666016201708379  1.0000
  Br  Br2       1.0  0.3412507265492738  0.04317449792626738  0.633398379754861  1.0000
