data_image0
_chemical_formula_structural       H14C18N2O4Br2
_chemical_formula_sum              "H14 C18 N2 O4 Br2"
_cell_length_a       4.709892770377207
_cell_length_b       8.058627396793723
_cell_length_c       11.719087665774952
_cell_angle_alpha    108.85081431998941
_cell_angle_beta     88.5716701284311
_cell_angle_gamma    97.36737074689107

_space_group_name_H-M_alt    "P 1"
_space_group_IT_number       1

loop_
  _space_group_symop_operation_xyz
  'x, y, z'

loop_
  _atom_site_type_symbol
  _atom_site_label
  _atom_site_symmetry_multiplicity
  _atom_site_fract_x
  _atom_site_fract_y
  _atom_site_fract_z
  _atom_site_occupancy
  H   H1        1.0  0.48013944956220456  0.39486116885597194  0.7579893428590511  1.0000
  H   H2        1.0  0.5198605511277635  0.6051388320144592  0.2420106575892479  1.0000
  H   H3        1.0  0.25850569892295683  0.4010472593987666  0.15083660428031095  1.0000
  H   H4        1.0  0.7414942995558661  0.5989527410646764  0.8491633952893559  1.0000
  H   H5        1.0  0.05544427599757566  0.2094405388042417  0.7168143209015986  1.0000
  H   H6        1.0  0.9445557221906937  0.7905594604083883  0.2831856786688855  1.0000
  H   H7        1.0  0.6191039165745588  0.028436173769143355  0.7382786854072062  1.0000
  H   H8        1.0  0.38089608190426416  0.9715638266942996  0.26172131416246047  1.0000
  H   H9        1.0  0.7304918531936023  0.8967433490014104  0.8196833431455793  1.0000
  H   H10       1.0  0.2695081474046269  0.10325665144171026  0.18031665640119957  1.0000
  H   H11       1.0  0.4812765194603385  0.04635917185831005  0.8838723612399305  1.0000
  H   H12       1.0  0.5187234787279308  0.95364082735432  0.11612763833055346  1.0000
  H   H13       1.0  0.8512001275171976  0.17428158046127942  0.06977491744539824  1.0000
  H   H14       1.0  0.14879987076281054  0.8257184191786613  0.930225083026606  1.0000
  C   C1        1.0  0.6199192863702558  0.425926598698501  0.3810753562584189  1.0000
  C   C2        1.0  0.3800807143197122  0.57407340217193  0.6189246441898801  1.0000
  C   C3        1.0  0.562246496056531  0.42184383365455685  0.5892696214711489  1.0000
  C   C4        1.0  0.43775350454169815  0.5781561667885636  0.4107303780756299  1.0000
  C   C5        1.0  0.6730138431389554  0.35722209413477196  0.47621926392306524  1.0000
  C   C6        1.0  0.3269861571687203  0.6427779050575355  0.5237807356245309  1.0000
  C   C7        1.0  0.9817080539223482  0.22695974663608542  0.008112756494612253  1.0000
  C   C8        1.0  0.018291946477066293  0.7730402529835328  0.9918872439545041  1.0000
  C   C9        1.0  0.21124095609670832  0.3568463614864235  0.05480461615924542  1.0000
  C   C10       1.0  0.7887590443027062  0.6431536381331947  0.9451953842898709  1.0000
  C   C11       1.0  0.09332547684975048  0.2470642232911647  0.8139138537934885  1.0000
  C   C12       1.0  0.9066745234579251  0.7529357759011429  0.1860861457541076  1.0000
  C   C13       1.0  0.37806949576848065  0.42963510983373393  0.9778554587449951  1.0000
  C   C14       1.0  0.6219305025115276  0.5703648898062068  0.0221445417270091  1.0000
  C   C15       1.0  0.673512924493253  0.028257820017204626  0.8286362726351749  1.0000
  C   C16       1.0  0.3264870758144227  0.971742179175103  0.1713637269124211  1.0000
  C   C17       1.0  0.9153784761780716  0.1685986336464375  0.884498004198719  1.0000
  C   C18       1.0  0.08462152412960404  0.8314013655458701  0.11550199534887715  1.0000
  N   N1        1.0  0.3165221693632162  0.37040402756174623  0.8582480758847193  1.0000
  N   N2        1.0  0.6834778291156068  0.6295959729016968  0.14175192368494738  1.0000
  O   O1        1.0  0.7080176736848954  0.3705410157996024  0.2765432556692638  1.0000
  O   O2        1.0  0.29198232671451907  0.6294589838200159  0.7234567447798527  1.0000
  O   O3        1.0  0.6088328624611142  0.3582328267694065  0.6751203415898923  1.0000
  O   O4        1.0  0.3911671379383002  0.6417671728502117  0.324879658859224  1.0000
  Br  Br1       1.0  0.8947265214227629  0.1669325866120145  0.4417643898366732  1.0000
  Br  Br2       1.0  0.10527347714779908  0.8330674142787392  0.5582356106345138  1.0000
