data_image0
_chemical_formula_structural       H28C36N4O8Br4
_chemical_formula_sum              "H28 C36 N4 O8 Br4"
_cell_length_a       8.75185887387828
_cell_length_b       9.792906477055093
_cell_length_c       12.710428980941227
_cell_angle_alpha    65.45718682478596
_cell_angle_beta     62.80112389626969
_cell_angle_gamma    63.86724878807344

_space_group_name_H-M_alt    "P 1"
_space_group_IT_number       1

loop_
  _space_group_symop_operation_xyz
  'x, y, z'

loop_
  _atom_site_type_symbol
  _atom_site_label
  _atom_site_symmetry_multiplicity
  _atom_site_fract_x
  _atom_site_fract_y
  _atom_site_fract_z
  _atom_site_occupancy
  H   H1        1.0  0.5090244843064409  0.5405721584973262  0.731602978897126  1.0000
  H   H2        1.0  0.378537462717337  0.16757547944022202  0.7513740952269008  1.0000
  H   H3        1.0  0.6328320100106322  0.18641587472285162  0.6465207418588409  1.0000
  H   H4        1.0  0.8663285862070569  0.31680888866671636  0.5658372885425501  1.0000
  H   H5        1.0  0.7590838163786295  0.526443526564436  0.22322976680805687  1.0000
  H   H6        1.0  0.4301141181127186  0.24995510332950804  0.34219421934598343  1.0000
  H   H7        1.0  0.20676120054668312  0.1111416055410533  0.4222642381864122  1.0000
  H   H8        1.0  0.19669048415222717  0.023905277592431228  0.787048891265698  1.0000
  H   H9        1.0  0.11912364305245919  0.41334682567889486  0.2817430982327112  1.0000
  H   H10       1.0  0.020315877991869537  0.5151456814272111  0.39543120627410844  1.0000
  H   H11       1.0  0.9691850652362255  0.6061642307788176  0.2560608675508327  1.0000
  H   H12       1.0  0.08746125600734272  0.8562470452079777  0.7302405380265669  1.0000
  H   H13       1.0  0.012197821279877391  0.9570654264712297  0.600764381005344  1.0000
  H   H14       1.0  0.9117555947210826  0.03587488952666578  0.7287518385517827  1.0000
  H   H15       1.0  0.5264863058318668  0.4265582964275559  0.30800257149765886  1.0000
  H   H16       1.0  0.3749328489911285  0.8048721623092313  0.35346512605540165  1.0000
  H   H17       1.0  0.14252996754442726  0.6735554937194737  0.43516699504620254  1.0000
  H   H18       1.0  0.23905113088316976  0.4796232060195067  0.7799680485976246  1.0000
  H   H19       1.0  0.5592063985268088  0.7641733862052836  0.6596218488096496  1.0000
  H   H20       1.0  0.7853255275132349  0.9009796039305665  0.5784821269893671  1.0000
  H   H21       1.0  0.8047191417169353  0.975541059393359  0.2128110808415787  1.0000
  H   H22       1.0  0.8827465743081989  0.5891572073382783  0.6862879510611157  1.0000
  H   H23       1.0  0.014224994998858178  0.4176831874064302  0.766853181250437  1.0000
  H   H24       1.0  0.02940315165520868  0.4310713619994119  0.6187014945616063  1.0000
  H   H25       1.0  0.9553014451904783  0.08021234337134411  0.3954923768661582  1.0000
  H   H26       1.0  0.9383506704858579  0.12743401859013193  0.24864789064531004  1.0000
  H   H27       1.0  0.09763327895582304  0.9519411854894092  0.2991926471015943  1.0000
  H   H28       1.0  0.6168366690705492  0.832088718044916  0.28981734929812153  1.0000
  C   C1        1.0  0.5917117511937822  0.37866920459841036  0.08955185340212932  1.0000
  C   C2        1.0  0.4385704996424368  0.5277017921038752  0.12488240506957494  1.0000
  C   C3        1.0  0.3578168572083099  0.6384203391471273  0.037899334314383824  1.0000
  C   C4        1.0  0.4114418497007362  0.6226089331251471  0.9190147660884913  1.0000
  C   C5        1.0  0.5560428081659308  0.4709727960895733  0.8888769972970596  1.0000
  C   C6        1.0  0.6415976684856031  0.3600824731451886  0.9705949191870331  1.0000
  C   C7        1.0  0.5708408559165453  0.962250974971506  0.8838133318519935  1.0000
  C   C8        1.0  0.41554435516820387  0.10933447606452484  0.914257579951373  1.0000
  C   C9        1.0  0.358921152799672  0.14244592836309702  0.023668587462152738  1.0000
  C   C10       1.0  0.4346311603780443  0.035009372264341185  0.11779927146792198  1.0000
  C   C11       1.0  0.5864873055333555  0.8809729176490564  0.09125848987843732  1.0000
  C   C12       1.0  0.643434190789561  0.8539324264467433  0.9777059667565714  1.0000
  C   C13       1.0  0.5645134735036991  0.2925181952083767  0.4814690850259205  1.0000
  C   C14       1.0  0.6608002358526389  0.2657360427611675  0.5543644087430063  1.0000
  C   C15       1.0  0.7954473745292071  0.33549599108895567  0.5069535178996667  1.0000
  C   C16       1.0  0.8424405919589577  0.42706695298003805  0.3848608802370233  1.0000
  C   C17       1.0  0.7410193378074643  0.4505747759267877  0.3167482537736741  1.0000
  C   C18       1.0  0.42514658684614404  0.21831986696736946  0.5228448921276281  1.0000
  C   C19       1.0  0.3707161253512249  0.20432945244728629  0.4409352512567852  1.0000
  C   C20       1.0  0.24495196921942808  0.12503589487766179  0.48695159164326907  1.0000
  C   C21       1.0  0.17501550889284664  0.0594038627249655  0.6133088470332523  1.0000
  C   C22       1.0  0.23951170053194848  0.0772860240562057  0.6881373022146821  1.0000
  C   C23       1.0  0.9942116214343023  0.4952811848819884  0.3272599891495387  1.0000
  C   C24       1.0  0.04018927392665727  0.9726239125881964  0.6700041660047364  1.0000
  C   C25       1.0  0.43530705438213957  0.7066007663485564  0.5226027703076999  1.0000
  C   C26       1.0  0.3431368046941518  0.7307196842021813  0.4475292050224112  1.0000
  C   C27       1.0  0.20952590233907828  0.6597755293831731  0.4949066083733143  1.0000
  C   C28       1.0  0.16311961912768966  0.5710794751138744  0.6176556787988801  1.0000
  C   C29       1.0  0.2639055739580431  0.5523232793223515  0.6851915056336992  1.0000
  C   C30       1.0  0.5726353566731435  0.7834437531201596  0.4807224234878326  1.0000
  C   C31       1.0  0.6246362635476186  0.8039039533391026  0.5607611085405005  1.0000
  C   C32       1.0  0.7504598107413945  0.8834021831890043  0.5137485195317167  1.0000
  C   C33       1.0  0.8244121085671506  0.9457514286207156  0.38677661681366277  1.0000
  C   C34       1.0  0.7636869436335114  0.9254145201713787  0.3119256577135978  1.0000
  C   C35       1.0  0.01532186378387826  0.49788413747609334  0.6756587780941781  1.0000
  C   C36       1.0  0.9601073323093243  0.031651389627438783  0.33003621085444934  1.0000
  N   N1        1.0  0.6067513536035063  0.3876725139687551  0.3657439571166372  1.0000
  N   N2        1.0  0.35806090610622654  0.1545548028320198  0.6449666634837602  1.0000
  N   N3        1.0  0.39763523503721  0.6143077824374791  0.6391329086515469  1.0000
  N   N4        1.0  0.6454942910314714  0.8457442369966713  0.35873985203587044  1.0000
  O   O1        1.0  0.6619773464342861  0.2799233936945975  0.1679266252947031  1.0000
  O   O2        1.0  0.3980764722476099  0.537412879274066  0.23165977785913547  1.0000
  O   O3        1.0  0.3512859534789295  0.7229566718228203  0.8353011308039214  1.0000
  O   O4        1.0  0.5953098500599756  0.4543811562230261  0.7809952244407637  1.0000
  O   O5        1.0  0.6231218782647309  0.9499494385393525  0.7775809951099013  1.0000
  O   O6        1.0  0.3397710856629306  0.2044926399316538  0.8310558892100856  1.0000
  O   O7        1.0  0.38517889638816677  0.054552935074149184  0.22055361567751472  1.0000
  O   O8        1.0  0.6511260407010687  0.7880543413641559  0.17655563311535027  1.0000
  Br  Br1       1.0  0.1739895257036404  0.8274199144719169  0.07268333457015794  1.0000
  Br  Br2       1.0  0.8240393317849403  0.1716731176553857  0.9339468072503289  1.0000
  Br  Br3       1.0  0.16833024935827987  0.33045746534312576  0.05386589526513557  1.0000
  Br  Br4       1.0  0.8325331726381642  0.6661695739026293  0.9455400792199705  1.0000
