data_image0
_chemical_formula_structural       H28C36N4O8Br4
_chemical_formula_sum              "H28 C36 N4 O8 Br4"
_cell_length_a       8.793263313670641
_cell_length_b       9.718262298641115
_cell_length_c       12.619930312226776
_cell_angle_alpha    66.04405642250545
_cell_angle_beta     63.59631266082775
_cell_angle_gamma    63.547146778125644

_space_group_name_H-M_alt    "P 1"
_space_group_IT_number       1

loop_
  _space_group_symop_operation_xyz
  'x, y, z'

loop_
  _atom_site_type_symbol
  _atom_site_label
  _atom_site_symmetry_multiplicity
  _atom_site_fract_x
  _atom_site_fract_y
  _atom_site_fract_z
  _atom_site_occupancy
  H   H1        1.0  0.5232585182247071  0.4231594426505008  0.30265354332480354  1.0000
  H   H2        1.0  0.47674148274320516  0.576840557593483  0.6973464562008537  1.0000
  H   H3        1.0  0.3785075112670221  0.17348577485707875  0.7448134500796568  1.0000
  H   H4        1.0  0.6214924885601979  0.8265142253997398  0.25518654944162505  1.0000
  H   H5        1.0  0.624896082947233  0.1975276195579631  0.6455927734089377  1.0000
  H   H6        1.0  0.3751039164446476  0.8024723803845262  0.35440722702833954  1.0000
  H   H7        1.0  0.8543347211673743  0.3277313882205514  0.5656505002363849  1.0000
  H   H8        1.0  0.14566527822450623  0.6722686117219379  0.4343495002008926  1.0000
  H   H9        1.0  0.7573651294860344  0.5170325528801946  0.21878768251298206  1.0000
  H   H10       1.0  0.24263486990584637  0.48296744706229466  0.7812123179242952  1.0000
  H   H11       1.0  0.4280547775563181  0.2455295132404168  0.3398655440301566  1.0000
  H   H12       1.0  0.5719452222709018  0.7544704870164018  0.6601344554911254  1.0000
  H   H13       1.0  0.20245340815951599  0.11095999905966579  0.42100217851664423  1.0000
  H   H14       1.0  0.7975465928083962  0.889040001184318  0.5789978210090129  1.0000
  H   H15       1.0  0.19897617021561567  0.03025900541326906  0.7843842313761493  1.0000
  H   H16       1.0  0.8010238307522963  0.9697409948307149  0.21561576814950795  1.0000
  H   H17       1.0  0.9731553254012416  0.5909178273045368  0.24150662386814337  1.0000
  H   H18       1.0  0.02684467556667056  0.4090821729394471  0.758493375657514  1.0000
  H   H19       1.0  0.11540220411298407  0.40410508129960643  0.29978392529699227  1.0000
  H   H20       1.0  0.8845977957142358  0.5958949189572124  0.7002160742242897  1.0000
  H   H21       1.0  0.9890740421404961  0.5429845603066791  0.3893207221907492  1.0000
  H   H22       1.0  0.01092595768672368  0.45701543995013966  0.6106792773305327  1.0000
  H   H23       1.0  0.07239875243756555  0.8746666213715821  0.743957082491011  1.0000
  H   H24       1.0  0.9276012486517812  0.12533337741037867  0.2560429179460131  1.0000
  H   H25       1.0  0.9064051384677025  0.05720374655232058  0.7112395706081698  1.0000
  H   H26       1.0  0.09359486135951728  0.9427962537044983  0.2887604289131121  1.0000
  H   H27       1.0  0.027358663077286398  0.941832153726771  0.6027074637171644  1.0000
  H   H28       1.0  0.9726413374552864  0.05816784620288352  0.3972925367244882  1.0000
  C   C1        1.0  0.5909263570158069  0.37634964368502066  0.08587057512103839  1.0000
  C   C2        1.0  0.40907364237607363  0.6236503562574686  0.914129425316239  1.0000
  C   C3        1.0  0.43755695511624443  0.5273964489737277  0.12062747855639076  1.0000
  C   C4        1.0  0.5624430448324099  0.47260354982106806  0.8793725218762579  1.0000
  C   C5        1.0  0.35729384578113116  0.6401090119905399  0.03305774870257043  1.0000
  C   C6        1.0  0.6427061536107495  0.35989098795194935  0.966942251734707  1.0000
  C   C7        1.0  0.5684421196868041  0.964207769760792  0.8826630469612537  1.0000
  C   C8        1.0  0.43155788014041574  0.03579223049602681  0.11733695256002814  1.0000
  C   C9        1.0  0.41434851119297317  0.11405116707844035  0.9115198158747132  1.0000
  C   C10       1.0  0.5856514886342471  0.8859488331783785  0.08848018364656858  1.0000
  C   C11       1.0  0.3567499747413781  0.1458103341085268  0.022185524993729902  1.0000
  C   C12       1.0  0.6432500250858418  0.8541896661482921  0.9778144745275519  1.0000
  C   C13       1.0  0.5619209379061827  0.2931862537017364  0.4781625702408624  1.0000
  C   C14       1.0  0.4380790614856977  0.7068137462407529  0.521837430196415  1.0000
  C   C15       1.0  0.6553791512589691  0.2712209130669774  0.552158222643873  1.0000
  C   C16       1.0  0.3446208481329116  0.728779086875512  0.44784177779340434  1.0000
  C   C17       1.0  0.7879798319141792  0.34087695733197826  0.505246211736658  1.0000
  C   C18       1.0  0.2120201679130407  0.6591230429248405  0.49475378778462387  1.0000
  C   C19       1.0  0.8362375001657701  0.42703198878011744  0.38213836684825025  1.0000
  C   C20       1.0  0.16376249922611022  0.5729680111623717  0.6178616335890272  1.0000
  C   C21       1.0  0.7371594243323132  0.4462402516333269  0.3133822114932373  1.0000
  C   C22       1.0  0.26284057505956715  0.5537597483091624  0.6866177889440401  1.0000
  C   C23       1.0  0.42407484081681474  0.2189549677069114  0.5198367015178709  1.0000
  C   C24       1.0  0.5759251590104053  0.7810450325499074  0.4801632980034111  1.0000
  C   C25       1.0  0.36870432105433965  0.20291888229274968  0.4384322422563011  1.0000
  C   C26       1.0  0.631295679478233  0.7970811176369049  0.5615677581853515  1.0000
  C   C27       1.0  0.24278201401368626  0.12539422751766138  0.4850387658477798  1.0000
  C   C28       1.0  0.7572179865188866  0.8746057724119931  0.5149612345938729  1.0000
  C   C29       1.0  0.17519822681829547  0.062338973375588067  0.6112220791978092  1.0000
  C   C30       1.0  0.8248017730089245  0.9376610268812307  0.38877792032347264  1.0000
  C   C31       1.0  0.24105426333638966  0.08102638908097855  0.6855777090408041  1.0000
  C   C32       1.0  0.758945737047604  0.9189736100281468  0.3144222904758492  1.0000
  C   C33       1.0  0.9851934798583922  0.4959205890608471  0.32522311317882524  1.0000
  C   C34       1.0  0.014806520674180593  0.5040794108688074  0.6747768872628275  1.0000
  C   C35       1.0  0.03915573957945067  0.9787439640132317  0.6692637766849634  1.0000
  C   C36       1.0  0.9608442613884616  0.021256036230752156  0.33073622284069387  1.0000
  N   N1        1.0  0.6040654850371298  0.3843418125905056  0.36178723926614303  1.0000
  N   N2        1.0  0.3959345143547509  0.6156581873519837  0.6382127611711343  1.0000
  N   N3        1.0  0.3587214692878377  0.15773147049332054  0.6419331538974719  1.0000
  N   N4        1.0  0.6412785301040429  0.8422685294491687  0.35806684653980553  1.0000
  O   O1        1.0  0.6594240576417579  0.2767364089972077  0.1667984341460245  1.0000
  O   O2        1.0  0.34057594218546194  0.7232635912596113  0.8332015653752575  1.0000
  O   O3        1.0  0.3955983759767074  0.5373307206315094  0.22845223385772453  1.0000
  O   O4        1.0  0.6044016234151733  0.46266927931097973  0.7715477665795528  1.0000
  O   O5        1.0  0.6221399283917413  0.948442772835243  0.7776674781724958  1.0000
  O   O6        1.0  0.37786007100013924  0.0515572271072461  0.22233252226478176  1.0000
  O   O7        1.0  0.3414851619974028  0.21084672470849514  0.8265198661755304  1.0000
  O   O8        1.0  0.6585148389705093  0.7891532755354888  0.17348013335012671  1.0000
  Br  Br1       1.0  0.17054631141206908  0.8303992966979645  0.06947341304250552  1.0000
  Br  Br2       1.0  0.8294536884151508  0.16960070355885434  0.9305265864787763  1.0000
  Br  Br3       1.0  0.16508229410216194  0.33317361740218215  0.054751461636127007  1.0000
  Br  Br4       1.0  0.8349177064304107  0.6668263825274722  0.9452485388055257  1.0000
