data_image0
_chemical_formula_structural       H14C18N2O4Br2
_chemical_formula_sum              "H14 C18 N2 O4 Br2"
_cell_length_a       4.9095396561772215
_cell_length_b       7.704968611605648
_cell_length_c       11.772843394830488
_cell_angle_alpha    106.1905786355421
_cell_angle_beta     92.36213187668405
_cell_angle_gamma    97.13053358732428

_space_group_name_H-M_alt    "P 1"
_space_group_IT_number       1

loop_
  _space_group_symop_operation_xyz
  'x, y, z'

loop_
  _atom_site_type_symbol
  _atom_site_label
  _atom_site_symmetry_multiplicity
  _atom_site_fract_x
  _atom_site_fract_y
  _atom_site_fract_z
  _atom_site_occupancy
  H   H1        1.0  0.33732291567924394  0.496946971316418  0.2734078841159785  1.0000
  H   H2        1.0  0.6626770837882249  0.5030530289142373  0.7265921159897932  1.0000
  H   H3        1.0  0.01273562015523887  0.23669634132469036  0.22332999347479757  1.0000
  H   H4        1.0  0.98726437931223  0.763303658905965  0.7766700066309741  1.0000
  H   H5        1.0  0.8713157449236469  0.16582298469773823  0.5668904497431273  1.0000
  H   H6        1.0  0.12868425426472604  0.8341770142301267  0.4331095503739314  1.0000
  H   H7        1.0  0.28111835809529834  0.3953460730519442  0.6487819870776772  1.0000
  H   H8        1.0  0.7188816413721705  0.6046539271787112  0.35121801302809447  1.0000
  H   H9        1.0  0.5265569314873171  0.011864111364972342  0.3922889745084565  1.0000
  H   H10       1.0  0.4734430679801516  0.9881358888656829  0.6077110255973153  1.0000
  H   H11       1.0  0.745949169912365  0.8946160633419399  0.29093245528086903  1.0000
  H   H12       1.0  0.25405082955510383  0.1053839368887156  0.7090675448249026  1.0000
  H   H13       1.0  0.5743136625121044  0.06231107303396684  0.25463538778950634  1.0000
  H   H14       1.0  0.4256863387104716  0.9376889258790146  0.7453646123320827  1.0000
  C   C1        1.0  0.38799597999695257  0.5508764411754733  0.11428078232016843  1.0000
  C   C2        1.0  0.6120040191914204  0.44912355775239166  0.8857192177968903  1.0000
  C   C3        1.0  0.3298162891879455  0.6436867180045059  0.03449378975875845  1.0000
  C   C4        1.0  0.6701837102795233  0.3563132822261495  0.9655062103470133  1.0000
  C   C5        1.0  0.4337307456160955  0.6012972241842162  0.9187608522274119  1.0000
  C   C6        1.0  0.5662692557285345  0.3987027756238768  0.08123914699566812  1.0000
  C   C7        1.0  0.37472118743089355  0.43279305663649165  0.4785134260367246  1.0000
  C   C8        1.0  0.6252788140707782  0.5672069435792801  0.5214865740735776  1.0000
  C   C9        1.0  0.07184486487524856  0.2622096937880959  0.31756180212757684  1.0000
  C   C10       1.0  0.9281551345922203  0.7377903064425596  0.6824381979781949  1.0000
  C   C11       1.0  0.9159428712294316  0.17022285901637485  0.3855289244683593  1.0000
  C   C12       1.0  0.08405713027224014  0.8297771411993968  0.6144710756419428  1.0000
  C   C13       1.0  0.9933880923367461  0.22343943798368668  0.5073337953772371  1.0000
  C   C14       1.0  0.0066119090078839825  0.7765605618244064  0.49266620384584286  1.0000
  C   C15       1.0  0.22376240550128218  0.35277254176943157  0.5539486187761845  1.0000
  C   C16       1.0  0.7762375939661866  0.6472274584612239  0.4460513813295873  1.0000
  C   C17       1.0  0.6768649801520673  0.027893516095157805  0.32830002502627303  1.0000
  C   C18       1.0  0.3231350193154014  0.9721064841354975  0.6716999750794987  1.0000
  N   N1        1.0  0.2884066947431532  0.3902843912768793  0.3621943288267058  1.0000
  N   N2        1.0  0.7115933067585185  0.6097156089388925  0.6378056712835963  1.0000
  O   O1        1.0  0.29854060226889206  0.5877464289429692  0.22046910882195556  1.0000
  O   O2        1.0  0.7014593970415349  0.41225357088000736  0.7795308903965941  1.0000
  O   O3        1.0  0.3863441534624837  0.6800038623966681  0.843122641083281  1.0000
  O   O4        1.0  0.6136558460049851  0.3199961378339872  0.15687735902249061  1.0000
  Br  Br1       1.0  0.10613647021157911  0.8317572803647713  0.07061158080345571  1.0000
  Br  Br2       1.0  0.8938635292558897  0.16824271986588407  0.9293884193023162  1.0000
