data_image0
_chemical_formula_structural       H22C36N4F8Br2
_chemical_formula_sum              "H22 C36 N4 F8 Br2"
_cell_length_a       7.228672071652837
_cell_length_b       10.70523706462199
_cell_length_c       11.118989806015652
_cell_angle_alpha    101.97033456104563
_cell_angle_beta     103.35751486830209
_cell_angle_gamma    104.22974062113741

_space_group_name_H-M_alt    "P 1"
_space_group_IT_number       1

loop_
  _space_group_symop_operation_xyz
  'x, y, z'

loop_
  _atom_site_type_symbol
  _atom_site_label
  _atom_site_symmetry_multiplicity
  _atom_site_fract_x
  _atom_site_fract_y
  _atom_site_fract_z
  _atom_site_occupancy
  H   H1        1.0  0.47094238732318533  0.15107253369864723  0.2738078175454259  1.0000
  H   H2        1.0  0.5290576124287312  0.8489274655986908  0.7261921822174594  1.0000
  H   H3        1.0  0.31788293344650065  0.431484350767777  0.03432285878010099  1.0000
  H   H4        1.0  0.6821170663054157  0.5685156485295609  0.9656771409827841  1.0000
  H   H5        1.0  0.11237780282647059  0.5864996004891084  0.05792725188289426  1.0000
  H   H6        1.0  0.8876221977260318  0.41350040005481326  0.9420727488405397  1.0000
  H   H7        1.0  0.5170026935436368  0.8286853663190089  0.40525118382634345  1.0000
  H   H8        1.0  0.48299730655849143  0.17131463394132548  0.594748815934176  1.0000
  H   H9        1.0  0.7416993297712388  0.6890833594735482  0.3964783868491609  1.0000
  H   H10       1.0  0.25830066894923914  0.31091664078814507  0.6035216129148089  1.0000
  H   H11       1.0  0.6058838078169512  0.36598762625806863  0.1229199555953963  1.0000
  H   H12       1.0  0.3941161922851769  0.6340123740022658  0.8770800441651231  1.0000
  H   H13       1.0  0.9292421078095784  0.5793112319710984  0.35556381189263153  1.0000
  H   H14       1.0  0.07075789194233803  0.42068876732623967  0.6444361878702538  1.0000
  H   H15       1.0  0.21174701950375138  0.5168176012468758  0.44921215112384727  1.0000
  H   H16       1.0  0.7882529805983767  0.48318239901345866  0.5507878486366722  1.0000
  H   H17       1.0  0.43376222862461733  0.3734200079581844  0.4279168069963864  1.0000
  H   H18       1.0  0.5662377711272991  0.6265799913391537  0.5720831927664989  1.0000
  H   H19       1.0  0.05156471536754762  0.1322583038095756  0.07250738564379375  1.0000
  H   H20       1.0  0.9484352830027188  0.8677416954891215  0.927492614122542  1.0000
  H   H21       1.0  0.8123237104972777  0.26132242231069625  0.07880417818058519  1.0000
  H   H22       1.0  0.18767628832336283  0.7386775772715879  0.921195822548665  1.0000
  C   C1        1.0  0.8632783614908757  0.956005582288016  0.25370417589898087  1.0000
  C   C2        1.0  0.13672163722960237  0.0439944179736773  0.746295823864989  1.0000
  C   C3        1.0  0.681920975730975  0.9181191092971995  0.157156795313501  1.0000
  C   C4        1.0  0.31807902437115315  0.08188089096313493  0.8428432044470183  1.0000
  C   C5        1.0  0.5444028563249683  0.9877789232105747  0.16703954588152783  1.0000
  C   C6        1.0  0.4555971437771599  0.012221077049759733  0.8329604538789916  1.0000
  C   C7        1.0  0.5817954465063138  0.096898502178717  0.2712411177404509  1.0000
  C   C8        1.0  0.4182045540461886  0.9031014983652047  0.7287588829829832  1.0000
  C   C9        1.0  0.7625755641654623  0.13460907808225436  0.3667847119458175  1.0000
  C   C10       1.0  0.23742443593666573  0.86539092217808  0.6332152878147018  1.0000
  C   C11       1.0  0.9022457907983412  0.06614895219230779  0.3588019537411936  1.0000
  C   C12       1.0  0.09775420930378687  0.9338510480680267  0.6411980460193257  1.0000
  C   C13       1.0  0.3686642501496725  0.5190941565329842  0.11792073156858571  1.0000
  C   C14       1.0  0.6313357499524558  0.4809058437273503  0.8820792681919338  1.0000
  C   C15       1.0  0.25338059295865195  0.6048126116256722  0.1312058141658158  1.0000
  C   C16       1.0  0.7466194071434762  0.3951873886346622  0.8687941855947037  1.0000
  C   C17       1.0  0.47751673630451386  0.7397649398440577  0.32403842470485167  1.0000
  C   C18       1.0  0.5224832637976143  0.2602350604162768  0.6759615750556678  1.0000
  C   C19       1.0  0.6035911345474174  0.6610134834166801  0.3187282129922246  1.0000
  C   C20       1.0  0.3964088656548733  0.33898651616424513  0.6812717877335753  1.0000
  C   C21       1.0  0.5505090131612536  0.5467384044937003  0.21347325242029924  1.0000
  C   C22       1.0  0.449490986590663  0.45326159480363787  0.7865267473425861  1.0000
  C   C23       1.0  0.6743030450660072  0.4589789008174208  0.20093957658372646  1.0000
  C   C24       1.0  0.32569695365447077  0.5410210994442726  0.7990604231802435  1.0000
  C   C25       1.0  0.8623336561700906  0.486163943066251  0.2775580862727542  1.0000
  C   C26       1.0  0.13766634393203755  0.5138360571940833  0.7224419134877652  1.0000
  C   C27       1.0  0.9906209539074069  0.40162828982144444  0.26582308878456073  1.0000
  C   C28       1.0  0.009379046194721288  0.59837171043889  0.7341769109759586  1.0000
  C   C29       1.0  0.16992054431275733  0.4314766199799468  0.3643690591949273  1.0000
  C   C30       1.0  0.8300794554391592  0.5685233793173914  0.635630940567958  1.0000
  C   C31       1.0  0.2939128404370422  0.35180775299420425  0.3521517812523023  1.0000
  C   C32       1.0  0.706087159665086  0.6481922472661302  0.647848218508217  1.0000
  C   C33       1.0  0.0821397032117497  0.21765721864623488  0.15554457688579384  1.0000
  C   C34       1.0  0.9178602968903784  0.7823427816140995  0.8444554228747255  1.0000
  C   C35       1.0  0.9478058568444273  0.29063895419595076  0.15904018467431832  1.0000
  C   C36       1.0  0.05219414187605066  0.7093610460657425  0.8409598150896516  1.0000
  N   N1        1.0  0.30447957392243347  0.7132836304104311  0.23192995602486285  1.0000
  N   N2        1.0  0.6955204266300687  0.28671637013349055  0.7680700446985711  1.0000
  N   N3        1.0  0.2535211949744217  0.24653161678169438  0.250022954376199  1.0000
  N   N4        1.0  0.7464788047774947  0.7534683825156436  0.7499770453866863  1.0000
  F   F1        1.0  0.6367391424041785  0.8118058222159031  0.05269551054557837  1.0000
  F   F2        1.0  0.36326085769794975  0.18819417804443142  0.9473044892149411  1.0000
  F   F3        1.0  0.3686246505598562  0.9468899842974612  0.07155379144136281  1.0000
  F   F4        1.0  0.6313753495422718  0.05311001596287312  0.9284462083191566  1.0000
  F   F5        1.0  0.8066791607655122  0.24250718238702385  0.47037140996470317  1.0000
  F   F6        1.0  0.19332083933661587  0.7574928178733105  0.5296285897958162  1.0000
  F   F7        1.0  0.07904469305513175  0.10829677242145444  0.45305446768710966  1.0000
  F   F8        1.0  0.9209553071471589  0.8917032271594708  0.5469455330386902  1.0000
  Br  Br1       1.0  0.04973367363946929  0.8591235439623921  0.24440065652696624  1.0000
  Br  Br2       1.0  0.9502663247307972  0.14087645533630477  0.7555993432393695  1.0000
