data_image0
_chemical_formula_structural       H14C26N4O2F8I4
_chemical_formula_sum              "H14 C26 N4 O2 F8 I4"
_cell_length_a       4.967216043269842
_cell_length_b       10.155034421533127
_cell_length_c       15.216580492011973
_cell_angle_alpha    99.19511723639711
_cell_angle_beta     96.8999085247248
_cell_angle_gamma    95.08530471370727

_space_group_name_H-M_alt    "P 1"
_space_group_IT_number       1

loop_
  _space_group_symop_operation_xyz
  'x, y, z'

loop_
  _atom_site_type_symbol
  _atom_site_label
  _atom_site_symmetry_multiplicity
  _atom_site_fract_x
  _atom_site_fract_y
  _atom_site_fract_z
  _atom_site_occupancy
  H   H1        1.0  0.8271143847149232  0.44424175121276094  0.42597960501019044  1.0000
  H   H2        1.0  0.17288561700268829  0.5557582483808714  0.5740203950589112  1.0000
  H   H3        1.0  0.33555336837783944  0.33820172167266316  0.292610646359926  1.0000
  H   H4        1.0  0.6644466315058778  0.6617982789098446  0.7073893537118598  1.0000
  H   H5        1.0  0.6776710459065585  0.30521247677845464  0.2834057054299302  1.0000
  H   H6        1.0  0.3223289539771589  0.694787523804053  0.7165942946418555  1.0000
  H   H7        1.0  0.9430445535472283  0.5988940376398002  0.3223958903675232  1.0000
  H   H8        1.0  0.05695544606101067  0.4011059627747801  0.6776041090322411  1.0000
  H   H9        1.0  0.9953864116869386  0.7565223245014242  0.21340333380324022  1.0000
  H   H10       1.0  0.004613588196778639  0.24347767608108337  0.7865966662685455  1.0000
  H   H11       1.0  0.6519151887015618  0.7274498305769351  0.07425667261584232  1.0000
  H   H12       1.0  0.3480848110024586  0.27255016901607443  0.9257433274524997  1.0000
  H   H13       1.0  0.2661294360464852  0.5446557594961307  0.052289179541550386  1.0000
  H   H14       1.0  0.7338705638372321  0.455344241086377  0.9477108205302354  1.0000
  C   C1        1.0  0.4408588720519151  0.47708634595191796  0.45038200096678277  1.0000
  C   C2        1.0  0.5591411276521052  0.5229136536410917  0.5496179991015593  1.0000
  C   C3        1.0  0.5479772075524959  0.3840062283487464  0.30356651229471776  1.0000
  C   C4        1.0  0.45202279215152447  0.6159937712442632  0.6964334877736242  1.0000
  C   C5        1.0  0.5775532489684113  0.4889646351454217  0.24391250479128895  1.0000
  C   C6        1.0  0.422446750915306  0.5110353654370859  0.7560874952804967  1.0000
  C   C7        1.0  0.7955597511774963  0.5907819683596268  0.2622185223691835  1.0000
  C   C8        1.0  0.2044402485265241  0.40921803123338274  0.7377814776991585  1.0000
  C   C9        1.0  0.8247510526393063  0.6779914905377669  0.2012915733255509  1.0000
  C   C10       1.0  0.17524894907830532  0.32200850905586553  0.7987084267435508  1.0000
  C   C11       1.0  0.6344152615290066  0.6623486924201852  0.12409888445552052  1.0000
  C   C12       1.0  0.3655847401886049  0.33765130717344716  0.8759011156135813  1.0000
  C   C13       1.0  0.42088126663446845  0.5599793627467369  0.11147429711771795  1.0000
  C   C14       1.0  0.5791187330695519  0.4400206368462727  0.888525702950624  1.0000
  C   C15       1.0  0.7033714208175605  0.10691930590204309  0.04177003972003719  1.0000
  C   C16       1.0  0.2966285790661568  0.8930806946804646  0.9582299603517486  1.0000
  C   C17       1.0  0.5303353876356389  0.04302040016930882  0.09121745676688404  1.0000
  C   C18       1.0  0.46966461206838145  0.9569795994237007  0.908782543301458  1.0000
  C   C19       1.0  0.33021896264756473  0.9392651211961757  0.05059329311464005  1.0000
  C   C20       1.0  0.6697810392497437  0.06073487938695476  0.9494067069579054  1.0000
  C   C21       1.0  0.2968673803989284  0.024730864379663695  0.43297595066267347  1.0000
  C   C22       1.0  0.703132619305092  0.975269135213346  0.5670240494056685  1.0000
  C   C23       1.0  0.38071787363137083  0.11861677668805842  0.511247537907983  1.0000
  C   C24       1.0  0.6192821278107624  0.8813832227376467  0.48875246148909735  1.0000
  C   C25       1.0  0.5816010584523524  0.0946928343685817  0.5770896238510905  1.0000
  C   C26       1.0  0.41839894125166793  0.9053071652244279  0.42291037621725147  1.0000
  N   N1        1.0  0.6251694894978814  0.43384189591121614  0.3985886727047199  1.0000
  N   N2        1.0  0.374830510385836  0.5661581046712916  0.6014113273670658  1.0000
  N   N3        1.0  0.39303987948625074  0.4748056006431152  0.16969535924776402  1.0000
  N   N4        1.0  0.6069601202177695  0.5251943989498944  0.8303046408205779  1.0000
  O   O1        1.0  0.19539466415904516  0.48026344065557663  0.42290727464053246  1.0000
  O   O2        1.0  0.8046053355449753  0.5197365589374329  0.5770927254278095  1.0000
  F   F1        1.0  0.5515794122049615  0.08264654076989252  0.18195686213652798  1.0000
  F   F2        1.0  0.4484205876787557  0.9173534598126151  0.8180431379352577  1.0000
  F   F3        1.0  0.16530449999091634  0.883568581432467  0.10299903433024175  1.0000
  F   F4        1.0  0.834695501726695  0.1164314181611654  0.89700096573886  1.0000
  F   F5        1.0  0.2644061236205038  0.23414836980736325  0.5252077291247778  1.0000
  F   F6        1.0  0.7355938762632135  0.7658516307751444  0.474792270947008  1.0000
  F   F7        1.0  0.6522380843408291  0.1883903233598469  0.6519091497227355  1.0000
  F   F8        1.0  0.34776191536319134  0.8116096762331627  0.3480908503456065  1.0000
  I   I1        1.0  0.0012597849193484957  0.2698113164771187  0.10379736607451043  1.0000
  I   I2        1.0  0.998740216798263  0.7301886831165136  0.8962026339945913  1.0000
  I   I3        1.0  0.010243265040964369  0.06431610694786959  0.33225992321719333  1.0000
  I   I4        1.0  0.9897567346630561  0.9356838926451402  0.6677400768511488  1.0000
