data_image0
_chemical_formula_structural       H28C40N8O4F8I4
_chemical_formula_sum              "H28 C40 N8 O4 F8 I4"
_cell_length_a       5.0042816177894265
_cell_length_b       11.673700134447085
_cell_length_c       18.9856928682893
_cell_angle_alpha    86.16265653960238
_cell_angle_beta     83.89325679169521
_cell_angle_gamma    79.2256717055081

_space_group_name_H-M_alt    "P 1"
_space_group_IT_number       1

loop_
  _space_group_symop_operation_xyz
  'x, y, z'

loop_
  _atom_site_type_symbol
  _atom_site_label
  _atom_site_symmetry_multiplicity
  _atom_site_fract_x
  _atom_site_fract_y
  _atom_site_fract_z
  _atom_site_occupancy
  H   H1        1.0  0.6818969093492345  0.993192705232447  0.22093941500422404  1.0000
  H   H2        1.0  0.31810309003733667  0.006807294853892554  0.7790605851011144  1.0000
  H   H3        1.0  0.021373159496043004  0.9108348609527372  0.11637550024590593  1.0000
  H   H4        1.0  0.9786268400835704  0.0891651391767763  0.8836244993290997  1.0000
  H   H5        1.0  0.20012376083915845  0.09133152160873022  0.3192022714567162  1.0000
  H   H6        1.0  0.7998762385474129  0.9086684784776095  0.6807977286486222  1.0000
  H   H7        1.0  0.5236766851680114  0.13527618324190502  0.3115022043542521  1.0000
  H   H8        1.0  0.4763233142185601  0.8647238168444344  0.6884977957510865  1.0000
  H   H9        1.0  0.2673065398637684  0.8458337460405326  0.34499918409995717  1.0000
  H   H10       1.0  0.7326934595228028  0.15416625404580694  0.6550008160053814  1.0000
  H   H11       1.0  0.43106280049824447  0.7034884406759316  0.4421432564996608  1.0000
  H   H12       1.0  0.5689371988883268  0.29651155941040785  0.5578567436056778  1.0000
  H   H13       1.0  0.9387415916726515  0.9149324619701787  0.5002834056640484  1.0000
  H   H14       1.0  0.061258409714874534  0.08506753811048408  0.49971659444070915  1.0000
  H   H15       1.0  0.7895023837632789  0.06959760759547509  0.40686606826542643  1.0000
  H   H16       1.0  0.2104976156232927  0.9304023924908644  0.593133931839912  1.0000
  H   H17       1.0  0.5154687568157151  0.8270856193427257  0.019075892245216938  1.0000
  H   H18       1.0  0.4845312431312917  0.1729143799148628  0.9809241073291026  1.0000
  H   H19       1.0  0.29626381937088436  0.952818337607885  0.9895623246034666  1.0000
  H   H20       1.0  0.7037361822096836  0.04718166251595157  0.01043767497095817  1.0000
  H   H21       1.0  0.14804975620500288  0.8863749017213453  0.8899381527158863  1.0000
  H   H22       1.0  0.8519502451825233  0.11362509835931747  0.11006184738887129  1.0000
  H   H23       1.0  0.8731325789440245  0.7603845575097098  0.8394893874243781  1.0000
  H   H24       1.0  0.12686742100298223  0.23961544174787883  0.16051061214994147  1.0000
  H   H25       1.0  0.7876638025544757  0.5710532977549075  0.030545838578323416  1.0000
  H   H26       1.0  0.2123361968320958  0.428946702331432  0.9694541615270151  1.0000
  H   H27       1.0  0.06475423365853976  0.6870511011700098  0.0885226696394308  1.0000
  H   H28       1.0  0.9352457657280316  0.31294889891632977  0.9114773304659078  1.0000
  C   C1        1.0  0.28795966493773845  0.9837997197317163  0.20554250436471758  1.0000
  C   C2        1.0  0.7120403348162265  0.01620027948269832  0.7944574957399347  1.0000
  C   C3        1.0  0.40313723561719605  0.9364691221975936  0.13313138456656945  1.0000
  C   C4        1.0  0.5968627637693752  0.063530877888746  0.866868615538769  1.0000
  C   C5        1.0  0.4216355964513109  0.05997334982061993  0.3109555542833638  1.0000
  C   C6        1.0  0.5783644029352606  0.9400266502657197  0.6890444458219747  1.0000
  C   C7        1.0  0.5146210277187515  0.9704300938703364  0.3685968589641658  1.0000
  C   C8        1.0  0.4853789716678198  0.029569906216003167  0.6314031411411727  1.0000
  C   C9        1.0  0.4148913046726279  0.8654816368120486  0.37862134279090487  1.0000
  C   C10       1.0  0.5851086967148981  0.13451836326861413  0.6213786573138527  1.0000
  C   C11       1.0  0.5071382516668896  0.7853873768978744  0.43235724190280583  1.0000
  C   C12       1.0  0.4928617477196819  0.21461262318846513  0.5676427582025325  1.0000
  C   C13       1.0  0.788328836741849  0.903939520183571  0.464926723250233  1.0000
  C   C14       1.0  0.21167116483871887  0.0960604799402656  0.5350732763241918  1.0000
  C   C15       1.0  0.7060398732659682  0.9892316409277205  0.4129191757872212  1.0000
  C   C16       1.0  0.29396012612060335  0.010768359158619002  0.5870808243181174  1.0000
  C   C17       1.0  0.30104159754359844  0.871888578152969  0.02297438665542896  1.0000
  C   C18       1.0  0.698958401842973  0.12811142193337047  0.9770256134499095  1.0000
  C   C19       1.0  0.12853661905429262  0.7975810556135959  0.9938950236624386  1.0000
  C   C20       1.0  0.8714633806996726  0.20241894360081855  0.006104976442213747  1.0000
  C   C21       1.0  0.0716524936571615  0.8174046522670324  0.9231112681041737  1.0000
  C   C22       1.0  0.9283475079234063  0.18259534785680445  0.076888731470251  1.0000
  C   C23       1.0  0.9183740187753306  0.7471341774631631  0.8947897086872799  1.0000
  C   C24       1.0  0.08162598261219554  0.25286582261749946  0.1052102914174775  1.0000
  C   C25       1.0  0.8733269977352873  0.641045198395452  0.0005774177959342759  1.0000
  C   C26       1.0  0.126673001651284  0.3589548016908875  0.9994225823094042  1.0000
  C   C27       1.0  0.027219197156408435  0.7065431378203857  0.03314892190804369  1.0000
  C   C28       1.0  0.9727808025975565  0.2934568613940289  0.9668510781966086  1.0000
  C   C29       1.0  0.06357258358823852  0.5384870486906107  0.661907808433885  1.0000
  C   C30       1.0  0.9364274157983329  0.4615129513957288  0.33809219167145355  1.0000
  C   C31       1.0  0.2198303669558063  0.5726570327869765  0.7106913924687681  1.0000
  C   C32       1.0  0.7801696327981584  0.42734296642743813  0.2893086076358842  1.0000
  C   C33       1.0  0.33476464603889666  0.49785806651790926  0.7644195659255378  1.0000
  C   C34       1.0  0.6652353553486294  0.5021419335627534  0.23558043417921964  1.0000
  C   C35       1.0  0.2856646184731724  0.38390242982938527  0.7687749147217905  1.0000
  C   C36       1.0  0.7143353809133991  0.6160975702569542  0.23122508538354797  1.0000
  C   C37       1.0  0.1235318693034739  0.3467292185876837  0.7229053200278875  1.0000
  C   C38       1.0  0.8764681302761393  0.6532707815418297  0.27709467954711814  1.0000
  C   C39       1.0  0.015613391655912565  0.4243239144391356  0.6697855257097933  1.0000
  C   C40       1.0  0.9843866077306588  0.575676085647204  0.3302144743955451  1.0000
  N   N1        1.0  0.48065049719455694  0.010981428828955794  0.2416243213054182  1.0000
  N   N2        1.0  0.519349502559408  0.9890185703854587  0.7583756787992341  1.0000
  N   N3        1.0  0.22361758348895444  0.8999459643180842  0.09667493074165899  1.0000
  N   N4        1.0  0.776382415897617  0.10005403576825542  0.9033250693636794  1.0000
  N   N5        1.0  0.6914983058582344  0.8040889919467067  0.47481905800271035  1.0000
  N   N6        1.0  0.30850169352833706  0.1959110081396328  0.5251809421026281  1.0000
  N   N7        1.0  0.8192331258684991  0.660342347146553  0.9324572437044379  1.0000
  N   N8        1.0  0.1807668735180725  0.33965765293978645  0.06754275640090047  1.0000
  O   O1        1.0  0.03936461014233698  0.9987028673420534  0.2259308781343319  1.0000
  O   O2        1.0  0.9606353892442344  0.0012971327442859169  0.7740691219710065  1.0000
  O   O3        1.0  0.6464504838912337  0.9370513115493585  0.11035960553169831  1.0000
  O   O4        1.0  0.3535495154953378  0.06294868853698106  0.8896403945736403  1.0000
  F   F1        1.0  0.25799623415126904  0.6856393534472554  0.7065007449250075  1.0000
  F   F2        1.0  0.7420037677966923  0.3143606458046563  0.29349925464873117  1.0000
  F   F3        1.0  0.39091948346130045  0.30626848779055676  0.8195848629721089  1.0000
  F   F4        1.0  0.6090805179262254  0.693731512290106  0.18041513713264873  1.0000
  F   F5        1.0  0.06810990888804029  0.2370808684783712  0.7303725806427088  1.0000
  F   F6        1.0  0.9318900904985311  0.7629191316079684  0.26962741946262975  1.0000
  F   F7        1.0  0.8585737120407587  0.38544253814628276  0.6259692496800671  1.0000
  F   F8        1.0  0.14142628953980932  0.6145574619775539  0.37403074989435764  1.0000
  I   I1        1.0  0.8986250786468771  0.6530525322652896  0.5792330695494623  1.0000
  I   I2        1.0  0.10137492093273623  0.34694746786422387  0.4207669300255434  1.0000
  I   I3        1.0  0.5531603455447708  0.5554271495826039  0.8410924366318435  1.0000
  I   I4        1.0  0.44683965403484255  0.44457285054690954  0.1589075629431621  1.0000
