data_image0
_chemical_formula_structural       H28C40N6O10F6S2
_chemical_formula_sum              "H28 C40 N6 O10 F6 S2"
_cell_length_a       7.711744319143296
_cell_length_b       7.926297689110784
_cell_length_c       17.92515851569954
_cell_angle_alpha    98.16195957576456
_cell_angle_beta     89.96125018151398
_cell_angle_gamma    117.92116999815607

_space_group_name_H-M_alt    "P 1"
_space_group_IT_number       1

loop_
  _space_group_symop_operation_xyz
  'x, y, z'

loop_
  _atom_site_type_symbol
  _atom_site_label
  _atom_site_symmetry_multiplicity
  _atom_site_fract_x
  _atom_site_fract_y
  _atom_site_fract_z
  _atom_site_occupancy
  H   H1        1.0  0.1796470097808555  0.29548144626197703  0.3769746614190399  1.0000
  H   H2        1.0  0.8203529905833721  0.7045185543984709  0.6230253385856327  1.0000
  H   H3        1.0  0.2121216067636152  0.9918285706703344  0.6387107067348682  1.0000
  H   H4        1.0  0.7878783936006125  0.008171429990113546  0.36128929326980447  1.0000
  H   H5        1.0  0.8990886390086538  0.21279771585708177  0.6108145245089364  1.0000
  H   H6        1.0  0.10091136005941553  0.7872022848045007  0.38918547549921384  1.0000
  H   H7        1.0  0.08373395521275795  0.16194371881193326  0.7122998894740921  1.0000
  H   H8        1.0  0.916266044463614  0.8380562804188716  0.28770011052605843  1.0000
  H   H9        1.0  0.918449578690395  0.029826210161687836  0.8247923017084191  1.0000
  H   H10       1.0  0.08155042098597692  0.9701737890691169  0.17520769829173133  1.0000
  H   H11       1.0  0.5672070751557805  0.9590005456775417  0.8381796968602881  1.0000
  H   H12       1.0  0.4327929252084469  0.04099945498290609  0.16182030314438434  1.0000
  H   H13       1.0  0.38911106301230364  0.014225050045098598  0.7404954671834757  1.0000
  H   H14       1.0  0.6108889360557656  0.9857749506164838  0.25950453282467445  1.0000
  H   H15       1.0  0.8453350878003582  0.39560366830198906  0.4307142883518102  1.0000
  H   H16       1.0  0.15466491187601372  0.6043963309288156  0.5692857116483402  1.0000
  H   H17       1.0  0.7994212819804745  0.5147841810778233  0.2984440000869003  1.0000
  H   H18       1.0  0.20057871769589758  0.4852158181529814  0.7015559999132502  1.0000
  H   H19       1.0  0.9012766394356558  0.33092477312022817  0.22601541441654097  1.0000
  H   H20       1.0  0.09872336024071617  0.6690752261105766  0.7739845855836095  1.0000
  H   H21       1.0  0.8948483089542633  0.42676010766994965  0.09885508881938697  1.0000
  H   H22       1.0  0.10515169140996433  0.5732398929904983  0.9011449111852856  1.0000
  H   H23       1.0  0.08850083704774832  0.42609799631476475  0.043631419662142824  1.0000
  H   H24       1.0  0.9114991633164793  0.5739020043456831  0.9563685803425298  1.0000
  H   H25       1.0  0.11390266556469168  0.647192671432886  0.09327923170147208  1.0000
  H   H26       1.0  0.8860973347995358  0.35280732922756186  0.9067207683032004  1.0000
  H   H27       1.0  0.6901956334579387  0.6495270680605921  0.12531287659989135  1.0000
  H   H28       1.0  0.3098043669062887  0.3504729325998557  0.8746871234047813  1.0000
  C   C1        1.0  0.493438040800759  0.2440024310477116  0.5026692132508305  1.0000
  C   C2        1.0  0.5065619595634685  0.7559975696127362  0.497330786753842  1.0000
  C   C3        1.0  0.3211317667614683  0.07564430832238347  0.6022668263994483  1.0000
  C   C4        1.0  0.6788682316187453  0.9243556909095558  0.3977331736041798  1.0000
  C   C5        1.0  0.5219029086993664  0.14057368932716988  0.6074615857877966  1.0000
  C   C6        1.0  0.47809709097700553  0.8594263099036348  0.3925384142123538  1.0000
  C   C7        1.0  0.630704178034019  0.11276954726412053  0.6673237282226817  1.0000
  C   C8        1.0  0.36929582233020847  0.8872304533963273  0.33267627178199094  1.0000
  C   C9        1.0  0.8280752575582676  0.1555164975961478  0.6607048923704684  1.0000
  C   C10       1.0  0.17192474280595996  0.8444835030643001  0.33929510763420434  1.0000
  C   C11       1.0  0.9299747162038643  0.12563784741556053  0.7171939772124677  1.0000
  C   C12       1.0  0.07002528347250765  0.8743621518152442  0.28280602278768285  1.0000
  C   C13       1.0  0.8376196388415283  0.05330649371351143  0.7810835911655042  1.0000
  C   C14       1.0  0.1623803615226991  0.9466935069469363  0.2189164088391684  1.0000
  C   C15       1.0  0.6420364412692068  0.012568453659869153  0.7884459501881921  1.0000
  C   C16       1.0  0.35796355840716504  0.9874315455709356  0.21155404981195838  1.0000
  C   C17       1.0  0.5397481745757134  0.04250861834950575  0.7322895094700308  1.0000
  C   C18       1.0  0.4602518251006585  0.957491380881299  0.2677104905301197  1.0000
  C   C19       1.0  0.7192019034582179  0.39636103724897775  0.4047703470245851  1.0000
  C   C20       1.0  0.280798096218154  0.603638961981827  0.5952296529755654  1.0000
  C   C21       1.0  0.6917556373663453  0.45305827647238595  0.3385908658406546  1.0000
  C   C22       1.0  0.3082443629978824  0.5469417241880619  0.6614091341640179  1.0000
  C   C23       1.0  0.49166789085224766  0.4142648123900358  0.3342075309122628  1.0000
  C   C24       1.0  0.5083321095119798  0.5857351882704119  0.6657924690924097  1.0000
  C   C25       1.0  0.37527761323750924  0.4371265009413256  0.2766902228837252  1.0000
  C   C26       1.0  0.6247223871267182  0.5628734997191222  0.7233097771209474  1.0000
  C   C27       1.0  0.46190552814812086  0.5165349555825456  0.2116051757277892  1.0000
  C   C28       1.0  0.5380944722161067  0.48346504507790244  0.7883948242768835  1.0000
  C   C29       1.0  0.14788630486194523  0.46638696615486464  0.1621785731198908  1.0000
  C   C30       1.0  0.8521136948144268  0.5336130330759402  0.8378214268802597  1.0000
  C   C31       1.0  0.05886521225971305  0.3873933798283275  0.22306960378490945  1.0000
  C   C32       1.0  0.9411347874166589  0.6126066194024772  0.7769303962152411  1.0000
  C   C33       1.0  0.17269451023992047  0.3744871742086848  0.2818350451574367  1.0000
  C   C34       1.0  0.8273054894364515  0.6255128250221199  0.7181649548427138  1.0000
  C   C35       1.0  0.05444434040370676  0.49233104824632595  0.09572649245919783  1.0000
  C   C36       1.0  0.9455556599605208  0.5076689524141219  0.9042735075454749  1.0000
  C   C37       1.0  0.7058245201581033  0.890714738001367  0.987714309739841  1.0000
  C   C38       1.0  0.29417547951826867  0.10928526122943777  0.012285690260309517  1.0000
  C   C39       1.0  0.717711962579544  0.8566988587936403  0.07051270253161623  1.0000
  C   C40       1.0  0.28228803778468364  0.14330114186680765  0.9294872974730564  1.0000
  N   N1        1.0  0.6190005188509581  0.23710670793537691  0.5493366332628016  1.0000
  N   N2        1.0  0.3809994815132695  0.7628932927250709  0.45066336674187096  1.0000
  N   N3        1.0  0.543493112928478  0.32812480642146624  0.4375562464307735  1.0000
  N   N4        1.0  0.45650688743574946  0.6718751942389816  0.562443753573899  1.0000
  N   N5        1.0  0.40392037249973806  0.33865142677718146  0.3953204831936453  1.0000
  N   N6        1.0  0.5960796271766338  0.6613485724536232  0.6046795168065051  1.0000
  O   O1        1.0  0.34456451229874224  0.530972823097646  0.1574006661204006  1.0000
  O   O2        1.0  0.6554354880654852  0.4690271775628017  0.8425993338842719  1.0000
  O   O3        1.0  0.6384152885230103  0.5764929643598953  0.19750368989025213  1.0000
  O   O4        1.0  0.3615847111533616  0.42350703487090946  0.8024963101098984  1.0000
  O   O5        1.0  0.07922553338761808  0.29840675384374477  0.3410077338097321  1.0000
  O   O6        1.0  0.9207744662887539  0.70159324538706  0.6589922661904184  1.0000
  O   O7        1.0  0.7176866811580292  0.6913034174734615  0.07132244160026308  1.0000
  O   O8        1.0  0.28231331920619823  0.3086965831869864  0.9286775584044096  1.0000
  O   O9        1.0  0.7209099169865477  0.9732377835331794  0.12365886820073631  1.0000
  O   O10       1.0  0.2790900826898242  0.02676221569762542  0.8763411317994141  1.0000
  F   F1        1.0  0.8396902933707652  0.861036145329761  0.9455382549002377  1.0000
  F   F2        1.0  0.16030970699346236  0.13896385533068675  0.05446174510443487  1.0000
  F   F3        1.0  0.7394258195005468  0.07324305228104279  0.9849075003324745  1.0000
  F   F4        1.0  0.2605741808636808  0.926756948379405  0.01509249967219801  1.0000
  F   F5        1.0  0.5238650830089974  0.7665863139331777  0.9532252681591947  1.0000
  F   F6        1.0  0.47613491735523006  0.23341368672727017  0.04677473184547787  1.0000
  S   S1        1.0  0.2501214211284891  0.13578252580453426  0.5241427557521813  1.0000
  S   S2        1.0  0.7498785785478829  0.8642174734262705  0.47585724424796927  1.0000
