data_image0
_chemical_formula_structural       H76C76N16O16S4Br4
_chemical_formula_sum              "H76 C76 N16 O16 S4 Br4"
_cell_length_a       8.576955342762192
_cell_length_b       11.675914387187584
_cell_length_c       19.463380500423835
_cell_angle_alpha    90.0
_cell_angle_beta     102.08505911569522
_cell_angle_gamma    90.0

_space_group_name_H-M_alt    "P 1"
_space_group_IT_number       1

loop_
  _space_group_symop_operation_xyz
  'x, y, z'

loop_
  _atom_site_type_symbol
  _atom_site_label
  _atom_site_symmetry_multiplicity
  _atom_site_fract_x
  _atom_site_fract_y
  _atom_site_fract_z
  _atom_site_occupancy
  H   H1        1.0  0.01938722640697684  0.8102447145708086  0.3292485880546657  1.0000
  H   H2        1.0  0.4806127744756877  0.3102447148786038  0.170751411953197  1.0000
  H   H3        1.0  0.9806127741923353  0.18975528567006486  0.6707514119608451  1.0000
  H   H4        1.0  0.5193872261236244  0.6897552853622695  0.8292485880623137  1.0000
  H   H5        1.0  0.7835515050312007  0.8911804536198188  0.3675821830699684  1.0000
  H   H6        1.0  0.7164484950944471  0.39118045307115024  0.1324178170437775  1.0000
  H   H7        1.0  0.2164484944020944  0.10881954662105447  0.6324178169453276  1.0000
  H   H8        1.0  0.28355150550486496  0.6088195463132592  0.8675821829717332  1.0000
  H   H9        1.0  0.5050231569039171  0.5975332807900549  0.28061734610563427  1.0000
  H   H10       1.0  0.9949768429725747  0.09753328024138623  0.21938265348268174  1.0000
  H   H11       1.0  0.4949768434462388  0.40246671945081847  0.7193826533844464  1.0000
  H   H12       1.0  0.005023156460720558  0.9024667191430232  0.7806173465326143  1.0000
  H   H13       1.0  0.7392778299924286  0.5155987668602697  0.24373708128145974  1.0000
  H   H14       1.0  0.7607221701332192  0.015598767168065047  0.25626291883228625  1.0000
  H   H15       1.0  0.26072217060688335  0.48440123338060365  0.7562629187340509  1.0000
  H   H16       1.0  0.23927782930007602  0.9844012330728084  0.7437370811830097  1.0000
  H   H17       1.0  0.7650787910060446  0.8098252870349768  0.6727007380329467  1.0000
  H   H18       1.0  0.7349212081438983  0.3098252873427721  0.8272992619899973  1.0000
  H   H19       1.0  0.23492120842725076  0.1901747123494326  0.3272992619823493  1.0000
  H   H20       1.0  0.2650787912893969  0.6901747128981013  0.1727007380252987  1.0000
  H   H21       1.0  0.9057384371343408  0.9739534954520306  0.5399083998881371  1.0000
  H   H22       1.0  0.5942615631816192  0.47395349490336186  0.9600916001350218  1.0000
  H   H23       1.0  0.09426156346497142  0.026046504788842805  0.4600916001273737  1.0000
  H   H24       1.0  0.405738437417693  0.5260465053375115  0.03990839988048896  1.0000
  H   H25       1.0  0.9072027286650844  0.9645902793154028  0.6317638021327837  1.0000
  H   H26       1.0  0.5927972716508754  0.46459027962319804  0.8682361978903752  1.0000
  H   H27       1.0  0.09279727076821086  0.03540972092547065  0.36823619788251233  1.0000
  H   H28       1.0  0.4072027289484368  0.5354097206176753  0.13176380212513564  1.0000
  H   H29       1.0  0.7615559651820519  0.04971639485786117  0.5748418755398212  1.0000
  H   H30       1.0  0.7384440351339078  0.5497163945500658  0.9251581244833373  1.0000
  H   H31       1.0  0.23844403541726011  0.9502836053830123  0.4251581244756893  1.0000
  H   H32       1.0  0.2615559642993875  0.4502836056908075  0.07484187553195866  1.0000
  H   H33       1.0  0.4400446650211172  0.6455285856044629  0.670331113621259  1.0000
  H   H34       1.0  0.059955335134998386  0.14552858591225823  0.8296688868212317  1.0000
  H   H35       1.0  0.5599553355781949  0.35447141463641046  0.3296688863942518  1.0000
  H   H36       1.0  0.9400446642982968  0.8544714143286151  0.17033111319406422  1.0000
  H   H37       1.0  0.648657628013617  0.633206776345749  0.7057970332974133  1.0000
  H   H38       1.0  0.8513423711363259  0.13320677665354422  0.7942029667255308  1.0000
  H   H39       1.0  0.35134237141967817  0.3667932238951244  0.29420296671788276  1.0000
  H   H40       1.0  0.1486576282969695  0.8667932235873292  0.20579703328976526  1.0000
  H   H41       1.0  0.5513192967090526  0.5381685221069487  0.6378815775044139  1.0000
  H   H42       1.0  0.9486807024408904  0.038168521558279926  0.8621184225185302  1.0000
  H   H43       1.0  0.4486807027242427  0.4618314781339248  0.3621184225108821  1.0000
  H   H44       1.0  0.05131929699240493  0.9618314778261295  0.13788157749676588  1.0000
  H   H45       1.0  0.13034728309091093  0.6561841484901006  0.2735161595429408  1.0000
  H   H46       1.0  0.3696527163765806  0.156184148797896  0.22648383993927731  1.0000
  H   H47       1.0  0.869652717259245  0.34381585089430866  0.7264838399471399  1.0000
  H   H48       1.0  0.6303472828075586  0.8438158514429773  0.7735161595505888  1.0000
  H   H49       1.0  0.012895215687569682  0.548978077214555  0.22554121941406488  1.0000
  H   H50       1.0  0.48710478519509476  0.048978076665886446  0.2744587805937978  1.0000
  H   H51       1.0  0.9871047849117426  0.45102192302631827  0.7744587806014459  1.0000
  H   H52       1.0  0.5128952154042173  0.9510219235749868  0.7255412194217128  1.0000
  H   H53       1.0  0.35940349007210914  0.6819002243401845  0.4164237350166515  1.0000
  H   H54       1.0  0.14059650964453854  0.18190022379151577  0.08357626499099656  1.0000
  H   H55       1.0  0.6405965093611862  0.31809977590068894  0.5835762649986446  1.0000
  H   H56       1.0  0.8594034909547734  0.8180997764493576  0.916423735024514  1.0000
  H   H57       1.0  0.02825345466848311  0.4533445770901198  0.33898433099341924  1.0000
  H   H58       1.0  0.47174654504816455  0.9533445767823244  0.16101566901422876  1.0000
  H   H59       1.0  0.9717465447648123  0.5466554231507535  0.6610156690218768  1.0000
  H   H60       1.0  0.5282534543851307  0.04665542345854889  0.8389843310010673  1.0000
  H   H61       1.0  0.8305815409378053  0.29210195423688035  0.31727365061909196  1.0000
  H   H62       1.0  0.6694184589386863  0.7921019547855491  0.18272634896922402  1.0000
  H   H63       1.0  0.1694184596615066  0.707898045147529  0.6827263493964186  1.0000
  H   H64       1.0  0.33058154049460886  0.20789804545532437  0.817273651046072  1.0000
  H   H65       1.0  0.958283219191346  0.20388521370217155  0.5374345998361578  1.0000
  H   H66       1.0  0.5417167811246137  0.7038852133943763  0.9625654001870009  1.0000
  H   H67       1.0  0.04171678140796614  0.7961147865387018  0.46256540017935277  1.0000
  H   H68       1.0  0.45828321947469824  0.2961147868464971  0.037434599828509905  1.0000
  H   H69       1.0  0.15430924902648568  0.36371377171624797  0.5576340607929393  1.0000
  H   H70       1.0  0.3456907508804737  0.8637137714084527  0.9423659391241214  1.0000
  H   H71       1.0  0.8456907504068096  0.6362862285246254  0.4423659392223568  1.0000
  H   H72       1.0  0.6543092497188383  0.13628622797595674  0.0576340608913892  1.0000
  H   H73       1.0  0.3872051114475246  0.5938031301092832  0.5251594893547687  1.0000
  H   H74       1.0  0.11279488845943474  0.0938031304170785  0.9748405105622919  1.0000
  H   H75       1.0  0.6127948879857706  0.4061968692751262  0.4748405106605272  1.0000
  H   H76       1.0  0.8872051121398773  0.9061968698237949  0.025159489453218744  1.0000
  C   C1        1.0  0.8961547644473745  0.6582313483245076  0.28220741184078457  1.0000
  C   C2        1.0  0.6038452356782733  0.15823134777583894  0.21779258827296144  1.0000
  C   C3        1.0  0.10384523615193753  0.34176865191636574  0.7177925881747261  1.0000
  C   C4        1.0  0.39615476375502184  0.8417686516085704  0.7822074117423345  1.0000
  C   C5        1.0  0.9062663211392873  0.7640975605122573  0.3188213389039384  1.0000
  C   C6        1.0  0.5937336789863608  0.2640975608200526  0.1811786612098076  1.0000
  C   C7        1.0  0.09373367946002484  0.2359024388721521  0.6811786611115724  1.0000
  C   C8        1.0  0.4062663204469346  0.7359024394208208  0.8188213388054884  1.0000
  C   C9        1.0  0.7744439175383879  0.809678040323243  0.3397896382746021  1.0000
  C   C10       1.0  0.7255560825872601  0.30967803977457425  0.1602103618391439  1.0000
  C   C11       1.0  0.22555608189490747  0.19032195991763046  0.6602103617406939  1.0000
  C   C12       1.0  0.2744439180120519  0.6903219596098351  0.8397896381763669  1.0000
  C   C13       1.0  0.6284219875222405  0.7507788237655538  0.32501516650108864  1.0000
  C   C14       1.0  0.8715780126034075  0.25077882407334906  0.17498483361265732  1.0000
  C   C15       1.0  0.37157801191105494  0.24922117561885562  0.6749848335142075  1.0000
  C   C16       1.0  0.12842198799590454  0.7492211761675243  0.8250151664028533  1.0000
  C   C17       1.0  0.6176817368267216  0.643873046743951  0.2911955544964136  1.0000
  C   C18       1.0  0.8823182632989264  0.14387304705174625  0.20880444561733233  1.0000
  C   C19       1.0  0.38231826260657376  0.35612695264045846  0.7088044455188823  1.0000
  C   C20       1.0  0.11768173730038566  0.8561269531891272  0.7911955543981783  1.0000
  C   C21       1.0  0.748926229980571  0.5982255015217236  0.27032549065030687  1.0000
  C   C22       1.0  0.7510737701450768  0.0982255018295189  0.2296745094634391  1.0000
  C   C23       1.0  0.251073770618741  0.40177449786268576  0.7296745093652037  1.0000
  C   C24       1.0  0.2489262292882184  0.9017744984113545  0.770325490551857  1.0000
  C   C25       1.0  0.532265051557067  0.7700982245867458  0.4881987952462268  1.0000
  C   C26       1.0  0.9677349483194249  0.2700982248945411  0.011801204342089273  1.0000
  C   C27       1.0  0.46773494787622827  0.22990177479766358  0.5118012047690693  1.0000
  C   C28       1.0  0.03226505227988735  0.7299017753463323  0.9881987956734215  1.0000
  C   C29       1.0  0.7184185189673057  0.8710504893013143  0.5652770997701252  1.0000
  C   C30       1.0  0.781581481348654  0.3710504887526457  0.9347229002530335  1.0000
  C   C31       1.0  0.2815814816320064  0.12894951093955903  0.43472290024538557  1.0000
  C   C32       1.0  0.2184185180846412  0.6289495114882276  0.06527709976226245  1.0000
  C   C33       1.0  0.6969831774354555  0.7982889897024263  0.6194508115252694  1.0000
  C   C34       1.0  0.803016822880504  0.2982889891537577  0.8805491884978893  1.0000
  C   C35       1.0  0.30301682316385653  0.20171101053844703  0.38054918849024133  1.0000
  C   C36       1.0  0.19698317771880794  0.7017110102306517  0.11945081151762137  1.0000
  C   C37       1.0  0.5887003172845742  0.7084421378660377  0.6034676792029557  1.0000
  C   C38       1.0  0.9112996830313854  0.20844213731736913  0.8965323208202031  1.0000
  C   C39       1.0  0.4112996833147378  0.2915578623748356  0.39653232081255496  1.0000
  C   C40       1.0  0.0887003164019098  0.7915578620670404  0.10346767919509307  1.0000
  C   C41       1.0  0.8309870164536761  0.9699964186469198  0.5791152363338226  1.0000
  C   C42       1.0  0.6690129838622836  0.46999641809825105  0.9208847636893362  1.0000
  C   C43       1.0  0.169012984145636  0.030003581593953655  0.4208847636816882  1.0000
  C   C44       1.0  0.3309870155710116  0.5300035812861583  0.07911523632595982  1.0000
  C   C45       1.0  0.5565097724723554  0.6262759786954338  0.657706861781288  1.0000
  C   C46       1.0  0.9434902278436043  0.12627597900322912  0.8422931382418707  1.0000
  C   C47       1.0  0.4434902281269567  0.37372402068897564  0.3422931382342227  1.0000
  C   C48       1.0  0.056509772755707795  0.8737240212376443  0.15770686177364  1.0000
  C   C49       1.0  0.10323830533923561  0.4174109049093442  0.44904519279425825  1.0000
  C   C50       1.0  0.39676169437741204  0.9174109054580128  0.05095480721338984  1.0000
  C   C51       1.0  0.8967616940940597  0.5825890944750652  0.5509548072210378  1.0000
  C   C52       1.0  0.6032383050558832  0.08258909478286051  0.9490451928019061  1.0000
  C   C53       1.0  0.010676468950871392  0.39786388679738843  0.3816938228781977  1.0000
  C   C54       1.0  0.48932353193179307  0.8978638873460572  0.11830617712966497  1.0000
  C   C55       1.0  0.9893235316484408  0.6021361125870209  0.618306177137313  1.0000
  C   C56       1.0  0.5106764686675191  0.10213611289481622  0.8816938228858459  1.0000
  C   C57       1.0  0.9010954768527912  0.3085065906232333  0.369733372348566  1.0000
  C   C58       1.0  0.5989045230237005  0.8085065903154381  0.13026662723974997  1.0000
  C   C59       1.0  0.09890452258050392  0.6914934096176399  0.6302666276667299  1.0000
  C   C60       1.0  0.4010954775756116  0.19149340992543534  0.8697333727757607  1.0000
  C   C61       1.0  0.8851491750259697  0.23878649222192241  0.42625352118543997  1.0000
  C   C62       1.0  0.614850825099678  0.7387864919141272  0.07374647892830603  1.0000
  C   C63       1.0  0.1148508244073255  0.7612135080189509  0.5737464788298561  1.0000
  C   C64       1.0  0.3851491754996339  0.2612135083267463  0.9262535210872046  1.0000
  C   C65       1.0  0.9743245777941917  0.2581584208349141  0.49399685197727083  1.0000
  C   C66       1.0  0.5256754223314561  0.7581584213835828  0.006003148136475146  1.0000
  C   C67       1.0  0.025675422805120245  0.7418415785494953  0.5060031480382399  1.0000
  C   C68       1.0  0.47432457710183923  0.24184157885729063  0.9939968518788209  1.0000
  C   C69       1.0  0.08374417093434838  0.34771958541038367  0.50519936787789  1.0000
  C   C70       1.0  0.41625582897261093  0.8477195859590523  0.9948006320391707  1.0000
  C   C71       1.0  0.9162558284989468  0.6522804139740258  0.49480063213740605  1.0000
  C   C72       1.0  0.583744171626701  0.15228041428182107  0.00519936797633995  1.0000
  C   C73       1.0  0.22190838327661944  0.5113868406359764  0.45877244735808503  1.0000
  C   C74       1.0  0.2780916164400282  0.011386840087307675  0.04122755264956304  1.0000
  C   C75       1.0  0.7780916161566758  0.48861315960489704  0.541227552657211  1.0000
  C   C76       1.0  0.7219083829932672  0.9886131592971017  0.9587724473657331  1.0000
  N   N1        1.0  0.023132380816316585  0.6162563634327204  0.2594055477570334  1.0000
  N   N2        1.0  0.4768676189003311  0.11625636288405171  0.24059445225061465  1.0000
  N   N3        1.0  0.9768676197829954  0.383743636808153  0.7405944522584774  1.0000
  N   N4        1.0  0.5231323805329642  0.8837436365003576  0.7594055477646814  1.0000
  N   N5        1.0  0.43556501323711433  0.7542436007978685  0.42229559767844477  1.0000
  N   N6        1.0  0.06443498647953334  0.25424360110566374  0.07770440232920324  1.0000
  N   N7        1.0  0.5644349861961808  0.24575639944300492  0.5777044023368512  1.0000
  N   N8        1.0  0.9355650129537619  0.7457563991352096  0.9222955976860927  1.0000
  N   N9        1.0  0.6358854172140973  0.8565301747137013  0.4988545460359992  1.0000
  N   N10       1.0  0.8641145829115506  0.3565301741650327  0.0011454540777468022  1.0000
  N   N11       1.0  0.364114582219198  0.143469825527172  0.5011454539792969  1.0000
  N   N12       1.0  0.1358854176877615  0.6434698260758407  0.9988545459377639  1.0000
  N   N13       1.0  0.506870576547647  0.6939248894194406  0.5369670426067118  1.0000
  N   N14       1.0  0.9931294237683125  0.19392488972723596  0.9630329574164469  1.0000
  N   N15       1.0  0.4931294228856482  0.30607511082143274  0.46303295740858424  1.0000
  N   N16       1.0  0.006870576830999482  0.8060751105136374  0.036967042599063804  1.0000
  O   O1        1.0  0.3192178272882814  0.7634288308743826  0.2979247949776917  1.0000
  O   O2        1.0  0.18078217242836622  0.26342883032571396  0.2020752050299563  1.0000
  O   O3        1.0  0.6807821733110307  0.23657116936649078  0.7020752050378191  1.0000
  O   O4        1.0  0.819217827004929  0.7365711690586955  0.7979247949853396  1.0000
  O   O5        1.0  0.47590644005875116  0.9321098809993487  0.3522220955830604  1.0000
  O   O6        1.0  0.024093559657896464  0.4321098804506799  0.1477779044245876  1.0000
  O   O7        1.0  0.5240935605405609  0.0678901192415248  0.6477779044324503  1.0000
  O   O8        1.0  0.9759064397753988  0.5678901189337295  0.8522220955907085  1.0000
  O   O9        1.0  0.3076263470768967  0.5232148573051929  0.5229820265503242  1.0000
  O   O10       1.0  0.19237365283006272  0.023214856756524217  0.9770179733667366  1.0000
  O   O11       1.0  0.6923736523563987  0.47678514293568053  0.4770179734649718  1.0000
  O   O12       1.0  0.8076263477692492  0.9767851426278852  0.022982026648774124  1.0000
  O   O13       1.0  0.23802127661052477  0.5730085745868113  0.40826976184520675  1.0000
  O   O14       1.0  0.26197872427213964  0.07300857403814268  0.09173023816265599  1.0000
  O   O15       1.0  0.7619787239887872  0.426991425654062  0.591730238170304  1.0000
  O   O16       1.0  0.7380212763271723  0.9269914253462667  0.9082697618528547  1.0000
  S   S1        1.0  0.4575326312456046  0.8091032022611067  0.3463770217218666  1.0000
  S   S2        1.0  0.042467368471043015  0.309103201712438  0.15362297828578145  1.0000
  S   S3        1.0  0.5424673681876906  0.19089679797976672  0.6536229782934294  1.0000
  S   S4        1.0  0.957532632128269  0.6908967976719714  0.8463770217297293  1.0000
  Br  Br1       1.0  0.740066664867923  0.11359609329231127  0.411481749461521  1.0000
  Br  Br2       1.0  0.759933335257725  0.613596092984516  0.08851825065222493  1.0000
  Br  Br3       1.0  0.2599333357313891  0.8864039069485622  0.5885182505539898  1.0000
  Br  Br4       1.0  0.24006666417557038  0.3864039063998934  0.911481749363071  1.0000
