data_image0
_chemical_formula_structural       H72C76N20O24S4Cl4
_chemical_formula_sum              "H72 C76 N20 O24 S4 Cl4"
_cell_length_a       6.9151971586110905
_cell_length_b       19.321148557918278
_cell_length_c       15.64609598608681
_cell_angle_alpha    90.0
_cell_angle_beta     90.21431079873334
_cell_angle_gamma    90.0

_space_group_name_H-M_alt    "P 1"
_space_group_IT_number       1

loop_
  _space_group_symop_operation_xyz
  'x, y, z'

loop_
  _atom_site_type_symbol
  _atom_site_label
  _atom_site_symmetry_multiplicity
  _atom_site_fract_x
  _atom_site_fract_y
  _atom_site_fract_z
  _atom_site_occupancy
  H   H1        1.0  0.6826832636798964  0.5121861141088514  0.2898945485756475  1.0000
  H   H2        1.0  0.31731673494073526  0.012186114054979769  0.7101054519180029  1.0000
  H   H3        1.0  0.7293618311871612  0.5571687955159469  0.14323224813906021  1.0000
  H   H4        1.0  0.2706381688679925  0.05716879546207524  0.856767751712748  1.0000
  H   H5        1.0  0.3458120398787555  0.5284517558256427  0.16828636480124173  1.0000
  H   H6        1.0  0.6541879587418762  0.02845175577177119  0.8317136356924086  1.0000
  H   H7        1.0  0.3000952919863968  0.4806420256105397  0.3139726013417319  1.0000
  H   H8        1.0  0.6999047080687572  0.9806420256644114  0.6860273985100763  1.0000
  H   H9        1.0  0.40933790046170415  0.8569213983510654  0.17180931345346115  1.0000
  H   H10       1.0  0.5906620995934497  0.35692139829719377  0.8281906863983471  1.0000
  H   H11       1.0  0.5512269773903309  0.6848160423970984  0.24325663194183725  1.0000
  H   H12       1.0  0.44877302266482305  0.1848160423432268  0.756743367909971  1.0000
  H   H13       1.0  0.6319622626341618  0.7728254138328932  0.23399444213679776  1.0000
  H   H14       1.0  0.3680377374209921  0.27282541429658913  0.7660055577150104  1.0000
  H   H15       1.0  0.6831263265880032  0.7109146419957928  0.1524585029274861  1.0000
  H   H16       1.0  0.3168736734671507  0.21091464194192117  0.8475414969243221  1.0000
  H   H17       1.0  0.1693725595157707  0.929573271804247  0.05523605844112964  1.0000
  H   H18       1.0  0.8306274405393831  0.4295732717503753  0.9447639414106785  1.0000
  H   H19       1.0  0.05553153456871864  0.9216282570687182  0.15465379830470416  1.0000
  H   H20       1.0  0.9444684654864351  0.42162825701484663  0.845346201547104  1.0000
  H   H21       1.0  0.9302177118426483  0.89612855768371  0.05938857795292454  1.0000
  H   H22       1.0  0.06978228821250554  0.39612855762983845  0.9406114218988837  1.0000
  H   H23       1.0  0.08125578331202817  0.45148340037088686  0.42716655773378504  1.0000
  H   H24       1.0  0.9187442167431257  0.9514834004247584  0.5728334421180232  1.0000
  H   H25       1.0  0.8325735545343583  0.4601292212701594  0.41842161014496326  1.0000
  H   H26       1.0  0.1674264455207955  0.960129221324031  0.5815783897068451  1.0000
  H   H27       1.0  0.8905611747414837  0.6692183330219746  0.010744982868570568  1.0000
  H   H28       1.0  0.10943882531367018  0.1692183329681031  0.9892550169832377  1.0000
  H   H29       1.0  0.3909220470369318  0.6656388046211303  0.8974277204712862  1.0000
  H   H30       1.0  0.609077953018222  0.1656388050848264  0.10257227938052203  1.0000
  H   H31       1.0  0.9453508514682805  0.8028112921704708  0.8047022920415661  1.0000
  H   H32       1.0  0.054649148586873336  0.30281129211659913  0.19529770781024217  1.0000
  H   H33       1.0  0.14024346046572633  0.9038986920289829  0.8544775854728124  1.0000
  H   H34       1.0  0.8597565395894275  0.4038986919751113  0.14552241437899582  1.0000
  H   H35       1.0  0.8665667474016759  0.7877405654418227  0.02235951969471244  1.0000
  H   H36       1.0  0.1334332526534779  0.287740565387951  0.9776404801570958  1.0000
  H   H37       1.0  0.8377966680311691  0.5326389266740779  0.7729000178172569  1.0000
  H   H38       1.0  0.16220333202398485  0.03263892662020633  0.22709998203455137  1.0000
  H   H39       1.0  0.8077495212014293  0.47500381731906866  0.6311715583824216  1.0000
  H   H40       1.0  0.19225047885372457  0.9750038173729403  0.36882844146938654  1.0000
  H   H41       1.0  0.20876177279000346  0.4290490016755588  0.6822219433930756  1.0000
  H   H42       1.0  0.7912382272651504  0.9290490017294304  0.31777805645873264  1.0000
  H   H43       1.0  0.23993168722190358  0.48291441070547275  0.8255690876894175  1.0000
  H   H44       1.0  0.7600683128332504  0.9829144102417768  0.17443091216239076  1.0000
  H   H45       1.0  0.8363846973274549  0.12837000205060434  0.6417509556265414  1.0000
  H   H46       1.0  0.16361530273923125  0.6283700021044759  0.3582490448644026  1.0000
  H   H47       1.0  0.10852711372733886  0.2673846771848754  0.6373939578649006  1.0000
  H   H48       1.0  0.891472886327815  0.7673846767211795  0.36260604198690766  1.0000
  H   H49       1.0  0.04480622012088298  0.21039676486178768  0.7220656132570291  1.0000
  H   H50       1.0  0.9551937799342709  0.7103967649156593  0.27793438659477915  1.0000
  H   H51       1.0  0.9810056783270189  0.3005606360611558  0.7261417269051613  1.0000
  H   H52       1.0  0.01899432172813492  0.8005606361150274  0.2738582729466469  1.0000
  H   H53       1.0  0.35498473012939535  0.08638920843636629  0.594875787115231  1.0000
  H   H54       1.0  0.6450152699257585  0.5863892084902379  0.40512421273657717  1.0000
  H   H55       1.0  0.5909906655478846  0.05216356558611286  0.5746196592491161  1.0000
  H   H56       1.0  0.40900933450726934  0.5521635656399845  0.42538034060269225  1.0000
  H   H57       1.0  0.4527641554934767  0.09095429056570235  0.4913853863036179  1.0000
  H   H58       1.0  0.5472358445616772  0.5909542906195739  0.5086146135481903  1.0000
  H   H59       1.0  0.6834665292690412  0.5609232757313722  0.9087456728375242  1.0000
  H   H60       1.0  0.31653347078611266  0.06092327619506826  0.091254327014284  1.0000
  H   H61       1.0  0.43962313087184257  0.5457465827350428  0.9265862660552531  1.0000
  H   H62       1.0  0.5603768691833113  0.0457465826811712  0.07341373379655518  1.0000
  H   H63       1.0  0.29176890426557744  0.3241057865285985  0.5161043830181248  1.0000
  H   H64       1.0  0.7082310957895763  0.8241057865824701  0.48389561683368343  1.0000
  H   H65       1.0  0.5607211598671318  0.09957959301604258  0.3286365045741654  1.0000
  H   H66       1.0  0.4392788401880221  0.5995795925523466  0.6713634952776428  1.0000
  H   H67       1.0  0.36867869692754296  0.20307434199567814  0.28547815575552854  1.0000
  H   H68       1.0  0.631321303127611  0.7030743420495498  0.7145218440962796  1.0000
  H   H69       1.0  0.8135227491673291  0.33495877020974013  0.38983917209819474  1.0000
  H   H70       1.0  0.18647725088782466  0.8349587702636118  0.6101608277536136  1.0000
  H   H71       1.0  0.28583420663261283  0.20557125463290482  0.5052326735090902  1.0000
  H   H72       1.0  0.7141657934225409  0.7055712546867764  0.49476732634271814  1.0000
  C   C1        1.0  0.9889080571061446  0.4947214339430488  0.3138238738301241  1.0000
  C   C2        1.0  0.011091942949009212  0.9947214339969204  0.686176126021684  1.0000
  C   C3        1.0  0.8279708356256735  0.5172571837559944  0.264080328734637  1.0000
  C   C4        1.0  0.1720291644294803  0.01725718370212276  0.7359196711171713  1.0000
  C   C5        1.0  0.8538213492702137  0.5420361195715773  0.18197422378056177  1.0000
  C   C6        1.0  0.14617864933888572  0.04203611951770571  0.8180257760739529  1.0000
  C   C7        1.0  0.040989979571297595  0.5456129390237354  0.14743067048628364  1.0000
  C   C8        1.0  0.9590100204838562  0.04561293948743146  0.8525693293655247  1.0000
  C   C9        1.0  0.2020839478749094  0.5252031937739693  0.19612508218678437  1.0000
  C   C10       1.0  0.7979160521917767  0.025203193720097664  0.8038749183041597  1.0000
  C   C11       1.0  0.17637271002048288  0.49981709891891024  0.27775112635805815  1.0000
  C   C12       1.0  0.823627290034671  0.9998170989727818  0.7222488734937501  1.0000
  C   C13       1.0  0.12861444526398144  0.7078962722635183  0.0780137349199933  1.0000
  C   C14       1.0  0.8713855547911724  0.20789627220964663  0.9219862649318149  1.0000
  C   C15       1.0  0.39071167502091075  0.7456518212058217  0.15363135037757777  1.0000
  C   C16       1.0  0.609288325034243  0.2456518211519501  0.8463686494742305  1.0000
  C   C17       1.0  0.3273066891278628  0.813948010019049  0.14497050945177428  1.0000
  C   C18       1.0  0.672693310927291  0.3139480099651774  0.855029490400034  1.0000
  C   C19       1.0  0.1526291589839712  0.8258011247194245  0.10223899147315933  1.0000
  C   C20       1.0  0.847370841082715  0.3258011246655529  0.8977610090177847  1.0000
  C   C21       1.0  0.5747631877546495  0.7281168869349938  0.19913168817885013  1.0000
  C   C22       1.0  0.4252368123005044  0.22811688688112214  0.8008683116729581  1.0000
  C   C23       1.0  0.07046220073376339  0.8966860043576339  0.09194059119135978  1.0000
  C   C24       1.0  0.9295377993213906  0.3966860048213298  0.9080594086604484  1.0000
  C   C25       1.0  0.4459225585219483  0.7738361782779497  0.9176381143551734  1.0000
  C   C26       1.0  0.5540774415447379  0.2738361782240782  0.08236188613577072  1.0000
  C   C27       1.0  0.3354438020735065  0.7178396386955964  0.888395046594092  1.0000
  C   C28       1.0  0.6645561979816474  0.2178396386417248  0.11160495325771623  1.0000
  C   C29       1.0  0.15823876085549365  0.728887600433488  0.8488227558032211  1.0000
  C   C30       1.0  0.8417612391996603  0.22888760037961636  0.15117724404858718  1.0000
  C   C31       1.0  0.08414138407398254  0.7953490680916174  0.8362061360058363  1.0000
  C   C32       1.0  0.9158586159927036  0.2953490685553134  0.16379386448510783  1.0000
  C   C33       1.0  0.19277079351379112  0.8513703303243126  0.8641468925838605  1.0000
  C   C34       1.0  0.807229206552895  0.351370330270441  0.1358531079070835  1.0000
  C   C35       1.0  0.37243856476834736  0.8415242422706065  0.9045535807886476  1.0000
  C   C36       1.0  0.6275614352983387  0.3415242427343025  0.09544641970229653  1.0000
  C   C37       1.0  0.6320803246094481  0.7546111612513211  0.9609880566358269  1.0000
  C   C38       1.0  0.3679196739996512  0.25461116119744953  0.0390119432186878  1.0000
  C   C39       1.0  0.5410485077823864  0.5115020191669601  0.8098304193412771  1.0000
  C   C40       1.0  0.4589514922842997  0.011502019113088586  0.19016958114966695  1.0000
  C   C41       1.0  0.7019688643544398  0.5083810566724563  0.7537491370412218  1.0000
  C   C42       1.0  0.298031135700714  0.00838105661858474  0.24625086281058645  1.0000
  C   C43       1.0  0.6849903450236082  0.4772371560810294  0.6744440818687258  1.0000
  C   C44       1.0  0.31500965504307793  0.9772371561349009  0.32555591862221817  1.0000
  C   C45       1.0  0.5071543067397762  0.449164436264499  0.6481280022282574  1.0000
  C   C46       1.0  0.4928456933153776  0.9491644363183706  0.35187199762355076  1.0000
  C   C47       1.0  0.34688903309858327  0.45065149123505993  0.703136921458401  1.0000
  C   C48       1.0  0.6531109669565707  0.9506514912889317  0.29686307839340714  1.0000
  C   C49       1.0  0.36400870470493213  0.48063702176722733  0.7830145885917367  1.0000
  C   C50       1.0  0.635991295361754  0.9806370218210989  0.21698541189920742  1.0000
  C   C51       1.0  0.5374099493945557  0.28226903662851427  0.5752269628649939  1.0000
  C   C52       1.0  0.4625900492145436  0.7822690366823859  0.4247730369895207  1.0000
  C   C53       1.0  0.8094992219316621  0.240582679444023  0.6398108370927157  1.0000
  C   C54       1.0  0.19050077812349167  0.7405826794978946  0.3601891627590925  1.0000
  C   C55       1.0  0.7497731611301192  0.17270022017570544  0.6222187599570914  1.0000
  C   C56       1.0  0.2502268389365671  0.6727002202295771  0.3777812405338525  1.0000
  C   C57       1.0  0.5736779532952775  0.16325402346266363  0.5801729391187955  1.0000
  C   C58       1.0  0.4263220467598764  0.6632540235165353  0.4198270607330128  1.0000
  C   C59       1.0  0.9963163335666776  0.25515525462794547  0.6847014339707921  1.0000
  C   C60       1.0  0.0036836664884762633  0.7551552546818171  0.3152985658810162  1.0000
  C   C61       1.0  0.49048562986346955  0.09401257873231258  0.559541863744028  1.0000
  C   C62       1.0  0.5095143701916843  0.5940125782686166  0.4404581361077803  1.0000
  C   C63       1.0  0.8663439545190814  0.2258912277868352  0.4023776411030327  1.0000
  C   C64       1.0  0.13365604553607244  0.7258912278407068  0.5976223587487755  1.0000
  C   C65       1.0  0.7925105942944042  0.1590803626806315  0.38432711661292196  1.0000
  C   C66       1.0  0.20748940576074967  0.6590803627345031  0.6156728832388864  1.0000
  C   C67       1.0  0.6139319187659047  0.1514283890126681  0.3423371185254479  1.0000
  C   C68       1.0  0.3860680812892492  0.6514283890665397  0.6576628813263603  1.0000
  C   C69       1.0  0.5067776204012396  0.20884660184170548  0.3179750129196912  1.0000
  C   C70       1.0  0.4932223796654465  0.708846601895577  0.6820249875712528  1.0000
  C   C71       1.0  0.5817122025904387  0.2744963781061795  0.33517591086649473  1.0000
  C   C72       1.0  0.4182877974647151  0.7744963781600511  0.6648240889853135  1.0000
  C   C73       1.0  0.757867658942459  0.2834374428406154  0.37643500218353  1.0000
  C   C74       1.0  0.24213234111269488  0.783437442894487  0.6235649976682782  1.0000
  C   C75       1.0  0.050822047550228094  0.2424285578033291  0.4483621952638361  1.0000
  C   C76       1.0  0.9491779525049258  0.7424285578572007  0.5516378045879722  1.0000
  N   N1        1.0  0.9655837810638082  0.46921094741464825  0.39336080874991936  1.0000
  N   N2        1.0  0.03441621899134565  0.9692109474685198  0.6066391911018889  1.0000
  N   N3        1.0  0.02410441740866207  0.656320319777422  0.03883666333005655  1.0000
  N   N4        1.0  0.9758955826580241  0.1563203197235504  0.9611633371608874  1.0000
  N   N5        1.0  0.2902466006180531  0.6921488958025414  0.12047468426088528  1.0000
  N   N6        1.0  0.7097533994371008  0.19214889574866975  0.8795253155909228  1.0000
  N   N7        1.0  0.05319412343055888  0.772272286777948  0.06876228957256815  1.0000
  N   N8        1.0  0.9468058751785404  0.2722722867240764  0.9312377102819464  1.0000
  N   N9        1.0  0.04701760556177254  0.6689964135026901  0.8190467374319959  1.0000
  N   N10       1.0  0.9529823944933814  0.16899641396638604  0.18095326241981244  1.0000
  N   N11       1.0  0.5545190574355229  0.5434951855228324  0.8861824989183164  1.0000
  N   N12       1.0  0.44548094261963106  0.0434951854689608  0.11381750093349191  1.0000
  N   N13       1.0  0.42050055517466733  0.3359750710751435  0.5495315152634928  1.0000
  N   N14       1.0  0.5794994448920188  0.8359750706114476  0.45046848522745137  1.0000
  N   N15       1.0  0.7025284559883606  0.29569265423709107  0.6166510776865641  1.0000
  N   N16       1.0  0.29747154407832554  0.7956926542909627  0.3833489228043798  1.0000
  N   N17       1.0  0.4679307642075806  0.2187122549848713  0.5564202622522565  1.0000
  N   N18       1.0  0.5320692358475733  0.7187122550387429  0.44357973759955177  1.0000
  N   N19       1.0  0.4734570833817376  0.3357559898964387  0.3075902567240091  1.0000
  N   N20       1.0  0.5265429152273619  0.8357559899503103  0.6924097431305055  1.0000
  O   O1        1.0  0.26727001665489675  0.5585551473634938  0.01751767821901974  1.0000
  O   O2        1.0  0.7327299834002571  0.05855514730962224  0.9824823216327885  1.0000
  O   O3        1.0  0.9127767807423942  0.5444253527924503  0.9906149418331552  1.0000
  O   O4        1.0  0.08722321931275973  0.044425352738578665  0.009385058018653037  1.0000
  O   O5        1.0  0.6787771932516844  0.6925503238013351  0.9671395671089562  1.0000
  O   O6        1.0  0.3212228068034694  0.1925503237474634  0.0328604327428519  1.0000
  O   O7        1.0  0.7359821274395634  0.8058512009949349  0.991359378770176  1.0000
  O   O8        1.0  0.2640178726271228  0.3058512009410634  0.00864062172076797  1.0000
  O   O9        1.0  0.1179292938619469  0.6105090142358964  0.828636872974673  1.0000
  O   O10       1.0  0.882070706193207  0.11050901418202486  0.17136312687713529  1.0000
  O   O11       1.0  0.8868674851671601  0.6799736128841979  0.7854605152556948  1.0000
  O   O12       1.0  0.11313251488799377  0.17997361283032623  0.21453948459611344  1.0000
  O   O13       1.0  0.6666384605457676  0.42594277122450197  0.5022262480980977  1.0000
  O   O14       1.0  0.33336153950938624  0.9259427712783735  0.4977737517537105  1.0000
  O   O15       1.0  0.31171756596309613  0.44868449326461973  0.5044147002778802  1.0000
  O   O16       1.0  0.6882824340920576  0.9486844933184913  0.495585299573928  1.0000
  O   O17       1.0  0.1597154134867791  0.1895996896363957  0.46983609668155063  1.0000
  O   O18       1.0  0.8402845865683748  0.6895996896902673  0.5301639031702577  1.0000
  O   O19       1.0  0.09145991873104098  0.303843710553847  0.4646843661081092  1.0000
  O   O20       1.0  0.9085400813241129  0.8038437106077186  0.535315633743699  1.0000
  O   O21       1.0  0.5533628920304072  0.3930365173289777  0.31460595997973995  1.0000
  O   O22       1.0  0.44663710803627893  0.8930365173828493  0.6853940405112041  1.0000
  O   O23       1.0  0.3081680308362949  0.3270273333419667  0.2782456788030588  1.0000
  O   O24       1.0  0.6918319677728044  0.8270273333958383  0.7217543210514559  1.0000
  S   S1        1.0  0.06948116564286844  0.5714698982258455  0.042332803690908936  1.0000
  S   S2        1.0  0.9305188344122854  0.07146989817197393  0.9576671961608992  1.0000
  S   S3        1.0  0.48218470304667305  0.41903765843578406  0.5443160035902103  1.0000
  S   S4        1.0  0.5178152970084808  0.9190376579720879  0.45568399626159795  1.0000
  Cl  Cl1       1.0  0.4917012540146765  0.9153473023089006  0.9356157985764011  1.0000
  Cl  Cl2       1.0  0.5082987460404773  0.415347302255029  0.0643842012754071  1.0000
  Cl  Cl3       1.0  0.9074239809149057  0.08387222401102426  0.4125879845630516  1.0000
  Cl  Cl4       1.0  0.09257601914024811  0.5838722240648958  0.5874120152887566  1.0000
