data_image0
_chemical_formula_structural       C40O2P2Cl38
_chemical_formula_sum              "C40 O2 P2 Cl38"
_cell_length_a       9.462324344301248
_cell_length_b       13.173552296217652
_cell_length_c       14.119181912781922
_cell_angle_alpha    113.27651471800009
_cell_angle_beta     101.79594196746885
_cell_angle_gamma    96.34973312032608

_space_group_name_H-M_alt    "P 1"
_space_group_IT_number       1

loop_
  _space_group_symop_operation_xyz
  'x, y, z'

loop_
  _atom_site_type_symbol
  _atom_site_label
  _atom_site_symmetry_multiplicity
  _atom_site_fract_x
  _atom_site_fract_y
  _atom_site_fract_z
  _atom_site_occupancy
  C   C1        1.0  0.6651002653811  0.2661996438045381  0.27783053020192916  1.0000
  C   C2        1.0  0.334899733839597  0.7338003560822508  0.7221694700751253  1.0000
  C   C3        1.0  0.6240848844149729  0.15544202277222766  0.26839090852939107  1.0000
  C   C4        1.0  0.3759151145059806  0.8445579767515492  0.7316090909464963  1.0000
  C   C5        1.0  0.582737702430626  0.13665108359014522  0.3514392690018121  1.0000
  C   C6        1.0  0.41726229649032753  0.8633489159336315  0.6485607304740751  1.0000
  C   C7        1.0  0.5857399165068814  0.2291112144197199  0.44653929141080084  1.0000
  C   C8        1.0  0.41426008377082507  0.770888785467479  0.5534607088666591  1.0000
  C   C9        1.0  0.6321600492004197  0.34016737691647225  0.4593159904293489  1.0000
  C   C10       1.0  0.36783995077754306  0.6598326226077144  0.5406840090469439  1.0000
  C   C11       1.0  0.6712362817627969  0.35784056047561047  0.37520316939307774  1.0000
  C   C12       1.0  0.3287637185149095  0.6421594394115883  0.6247968308843822  1.0000
  C   C13       1.0  0.694149052959368  0.41919047753362776  0.16361256161774074  1.0000
  C   C14       1.0  0.3058509471359502  0.5808095227544201  0.8363874378587265  1.0000
  C   C15       1.0  0.5566445438656351  0.45242689933471475  0.16056206319002603  1.0000
  C   C16       1.0  0.44335545517267366  0.5475731009529232  0.8394379362860357  1.0000
  C   C17       1.0  0.5334639713719045  0.5493592592900722  0.14620684696399966  1.0000
  C   C18       1.0  0.4665360290231574  0.45064074136098786  0.8537931533136348  1.0000
  C   C19       1.0  0.6476157069944979  0.613915156805429  0.13050139138127695  1.0000
  C   C20       1.0  0.3523842932832085  0.38608484308176994  0.869498608896183  1.0000
  C   C21       1.0  0.7853245747768314  0.582742496819797  0.1336696246121551  1.0000
  C   C22       1.0  0.21467542456122102  0.4172575038308533  0.8663303756650738  1.0000
  C   C23       1.0  0.8096038447592019  0.4885075729195262  0.15386058812746173  1.0000
  C   C24       1.0  0.19039615533611645  0.5114924273685217  0.8461394113490054  1.0000
  C   C25       1.0  0.8733819112054023  0.2378553428988681  0.1426247920162195  1.0000
  C   C26       1.0  0.12661808877256042  0.7621446566253186  0.8573752074600732  1.0000
  C   C27       1.0  0.893524219505532  0.190304135109159  0.03860746022014228  1.0000
  C   C28       1.0  0.10647577941542133  0.8096958644146178  0.961392539255745  1.0000
  C   C29       1.0  0.018015645218615026  0.14441366618199547  0.020066237024808406  1.0000
  C   C30       1.0  0.9819843550590914  0.8555863337052034  0.9799337632526516  1.0000
  C   C31       1.0  0.12701500957731632  0.14799996982480876  0.10627796971568329  1.0000
  C   C32       1.0  0.8729849908177456  0.8520000308262514  0.8937220305619511  1.0000
  C   C33       1.0  0.11295598565459125  0.2009803731349023  0.21098711463829992  1.0000
  C   C34       1.0  0.8870440132663622  0.7990196263888745  0.7890128848375874  1.0000
  C   C35       1.0  0.9883091046818606  0.2467304505299831  0.22856821901257368  1.0000
  C   C36       1.0  0.011690895296102028  0.7532695489942036  0.7714317804637191  1.0000
  C   C37       1.0  0.04277149010997197  0.18434546615812383  0.6100620982642517  1.0000
  C   C38       1.0  0.9572285101677344  0.815654533729075  0.38993790201320827  1.0000
  C   C39       1.0  0.99056423545055  0.0993874855822291  0.6330244187125615  1.0000
  C   C40       1.0  0.009435764827156549  0.9006125143049698  0.36697558156489846  1.0000
  O   O1        1.0  0.5703429398136927  0.19591800511160862  0.060358343607706665  1.0000
  O   O2        1.0  0.4296570591072608  0.8040819944121682  0.9396416558681806  1.0000
  P   P1        1.0  0.6930968000326951  0.27529591039009466  0.15472643601102065  1.0000
  P   P2        1.0  0.30690320036236673  0.7247040902609655  0.8452735642666138  1.0000
  Cl  Cl1       1.0  0.6272496264820993  0.03888119669506414  0.15729024923831478  1.0000
  Cl  Cl2       1.0  0.3727503739129626  0.9611188039559959  0.8427097510393197  1.0000
  Cl  Cl3       1.0  0.5288177453632675  0.0018464619507851296  0.33689854667471586  1.0000
  Cl  Cl4       1.0  0.4711822549144387  0.9981535379364136  0.6631014536027441  1.0000
  Cl  Cl5       1.0  0.5355039987164573  0.206922085452792  0.5474519560524265  1.0000
  Cl  Cl6       1.0  0.46449600156124915  0.7930779144344068  0.4525480442250334  1.0000
  Cl  Cl7       1.0  0.643989206269115  0.45170230514064125  0.5783088022647316  1.0000
  Cl  Cl8       1.0  0.3560107938262031  0.5482976951474066  0.42169119721173565  1.0000
  Cl  Cl9       1.0  0.7390054290127581  0.49522929732616994  0.4001382445075969  1.0000
  Cl  Cl10      1.0  0.2609945712649483  0.5047707025610289  0.599861755769863  1.0000
  Cl  Cl11      1.0  0.41336608924860874  0.37667125354469483  0.17891345058977068  1.0000
  Cl  Cl12      1.0  0.5866339110290977  0.623328746342504  0.8210865496876893  1.0000
  Cl  Cl13      1.0  0.36734642716323107  0.5893554378414556  0.14708402531000989  1.0000
  Cl  Cl14      1.0  0.6326535731144753  0.41064456204574323  0.8529159749674501  1.0000
  Cl  Cl15      1.0  0.6178317898472646  0.7284913575453126  0.10774430389028787  1.0000
  Cl  Cl16      1.0  0.3821682101306982  0.2715086419788739  0.8922556955860049  1.0000
  Cl  Cl17      1.0  0.9231491229511564  0.6595092008010979  0.11245106387632058  1.0000
  Cl  Cl18      1.0  0.0768508771441619  0.34049079948695016  0.8875489356001467  1.0000
  Cl  Cl19      1.0  0.9871489739226308  0.4666557282170891  0.16893941441518376  1.0000
  Cl  Cl20      1.0  0.012851026355075729  0.5333442716701098  0.8310605858622763  1.0000
  Cl  Cl21      1.0  0.7743006748427803  0.19644504970986537  0.932474369138509  1.0000
  Cl  Cl22      1.0  0.22569932543492602  0.8035549501773334  0.06752563113895087  1.0000
  Cl  Cl23      1.0  0.03930453820339864  0.08459830532908845  0.893668617378914  1.0000
  Cl  Cl24      1.0  0.9606954620743078  0.9154016945581104  0.10633138289854588  1.0000
  Cl  Cl25      1.0  0.2758386447372751  0.09007694610218897  0.0843282165660082  1.0000
  Cl  Cl26      1.0  0.7241613556577867  0.9099230545488712  0.9156717837116262  1.0000
  Cl  Cl27      1.0  0.24824866513265137  0.20941568927573118  0.3163801340768664  1.0000
  Cl  Cl28      1.0  0.7517513351450551  0.7905843106114677  0.6836198662005937  1.0000
  Cl  Cl29      1.0  0.9909296210022205  0.3228081042489984  0.35979464943890616  1.0000
  Cl  Cl30      1.0  0.009070379392841466  0.6771918964020618  0.6402053508387283  1.0000
  Cl  Cl31      1.0  0.21605236962353008  0.20576316195160235  0.5940508419470768  1.0000
  Cl  Cl32      1.0  0.7839476307715318  0.7942368386994577  0.40594915833055756  1.0000
  Cl  Cl33      1.0  0.9381079083909041  0.27661356139898624  0.5930317512258017  1.0000
  Cl  Cl34      1.0  0.06189209200415763  0.7233864392520739  0.40696824905183276  1.0000
  Cl  Cl35      1.0  0.09684704367827354  0.008584803896377561  0.6518865421121914  1.0000
  Cl  Cl36      1.0  0.9031529564170447  0.9914151963916704  0.3481134573642758  1.0000
  Cl  Cl37      1.0  0.8157344808923842  0.07606402141651204  0.6449600462284578  1.0000
  Cl  Cl38      1.0  0.18426551938532224  0.9239359784706868  0.3550399540490021  1.0000
