data_image0
_chemical_formula_structural       H40C96N8O16F40
_chemical_formula_sum              "H40 C96 N8 O16 F40"
_cell_length_a       17.174987969746805
_cell_length_b       10.710353251370066
_cell_length_c       13.363351889830374
_cell_angle_alpha    90.0
_cell_angle_beta     119.08849399280236
_cell_angle_gamma    90.0

_space_group_name_H-M_alt    "P 1"
_space_group_IT_number       1

loop_
  _space_group_symop_operation_xyz
  'x, y, z'

loop_
  _atom_site_type_symbol
  _atom_site_label
  _atom_site_symmetry_multiplicity
  _atom_site_fract_x
  _atom_site_fract_y
  _atom_site_fract_z
  _atom_site_occupancy
  H   H1        1.0  0.525890233877988  0.6175493090439307  0.6871102787634223  1.0000
  H   H2        1.0  0.47410976652925785  0.6175493090439307  0.8128897218327124  1.0000
  H   H3        1.0  0.02589023352149421  0.11754930864105251  0.6871102787970079  1.0000
  H   H4        1.0  0.9741097662195344  0.11754930864105251  0.8128897213725884  1.0000
  H   H5        1.0  0.4741097664090993  0.38245069082814964  0.312889721469431  1.0000
  H   H6        1.0  0.5258902337578294  0.38245069082814964  0.18711027840014088  1.0000
  H   H7        1.0  0.9741097660993757  0.8824506912310278  0.31288972100930684  1.0000
  H   H8        1.0  0.025890233401335675  0.8824506912310278  0.18711027843372638  1.0000
  H   H9        1.0  0.4402818561391367  0.0038813379002865583  0.652941730017108  1.0000
  H   H10       1.0  0.5597181436018918  0.0038813379002865583  0.8470582701524881  1.0000
  H   H11       1.0  0.9402818558294131  0.5038813383031647  0.652941729556984  1.0000
  H   H12       1.0  0.05971814391161535  0.5038813383031647  0.8470582706126123  1.0000
  H   H13       1.0  0.5597181441479505  0.9961186619717938  0.34705827021574537  1.0000
  H   H14       1.0  0.4402818560189781  0.9961186619717938  0.15294172965382652  1.0000
  H   H15       1.0  0.059718143791456804  0.4961186615689156  0.34705827024933084  1.0000
  H   H16       1.0  0.9402818563754719  0.4961186615689156  0.15294172962024108  1.0000
  H   H17       1.0  0.39408667903487044  0.9873887678398668  0.44553602066110554  1.0000
  H   H18       1.0  0.6059133211229162  0.9873887678398668  0.0544639799509989  1.0000
  H   H19       1.0  0.8940866787251469  0.4873887683706647  0.4455360202009815  1.0000
  H   H20       1.0  0.1059133214417818  0.4873887683706647  0.05446397966859038  1.0000
  H   H21       1.0  0.6059133212522168  0.012611232032213484  0.5544639795717478  1.0000
  H   H22       1.0  0.39408667916417106  0.012611232032213484  0.9455360202818545  1.0000
  H   H23       1.0  0.10591332089572304  0.5126112315014156  0.5544639796053332  1.0000
  H   H24       1.0  0.8940866788453056  0.5126112315014156  0.945536020564263  1.0000
  H   H25       1.0  0.4748483504119657  0.619633360753163  0.4779392316119805  1.0000
  H   H26       1.0  0.525151649754963  0.619633360753163  0.022060768257591366  1.0000
  H   H27       1.0  0.9748483501022421  0.11963336035028485  0.47793923115185644  1.0000
  H   H28       1.0  0.025151649398469242  0.11963336035028485  0.022060768291176886  1.0000
  H   H29       1.0  0.5251516498751215  0.3803666391189173  0.5220607686208728  1.0000
  H   H30       1.0  0.47484835053212426  0.3803666391189173  0.9779392319752619  1.0000
  H   H31       1.0  0.025151649518627785  0.8803666395217955  0.5220607686544583  1.0000
  H   H32       1.0  0.9748483502224007  0.8803666395217955  0.9779392315151378  1.0000
  H   H33       1.0  0.4078368755634368  0.7858874635085712  0.3380939346323261  1.0000
  H   H34       1.0  0.5921631245943498  0.7858874635085712  0.16190606597977839  1.0000
  H   H35       1.0  0.9078368752537131  0.28588746403936915  0.338093934172202  1.0000
  H   H36       1.0  0.0921631242469982  0.28588746403936915  0.16190606527083126  1.0000
  H   H37       1.0  0.5921631247236504  0.21411253636350902  0.6619060656005272  1.0000
  H   H38       1.0  0.4078368756927374  0.21411253636350902  0.8380939342530749  1.0000
  H   H39       1.0  0.09216312436715673  0.7141125358327112  0.6619060656341127  1.0000
  H   H40       1.0  0.9078368753738717  0.7141125358327112  0.8380939345354834  1.0000
  C   C1        1.0  0.49615914881992057  0.7020910695954953  0.6379202291166638  1.0000
  C   C2        1.0  0.5038408515873253  0.7020910695954953  0.862079771479471  1.0000
  C   C3        1.0  0.996159148510197  0.20209107012629318  0.6379202286565396  1.0000
  C   C4        1.0  0.003840851230831519  0.20209107012629318  0.8620797715130566  1.0000
  C   C5        1.0  0.5038408514671667  0.297908930276585  0.36207977111618966  1.0000
  C   C6        1.0  0.49615914869976196  0.297908930276585  0.1379202287533823  1.0000
  C   C7        1.0  0.0038408517768902806  0.7979089297457871  0.3620797715763137  1.0000
  C   C8        1.0  0.9961591483900384  0.7979089297457871  0.13792022829325815  1.0000
  C   C9        1.0  0.45026042215640993  0.9167093110345402  0.6188093667985555  1.0000
  C   C10       1.0  0.5497395782508359  0.9167093110345402  0.8811906337975792  1.0000
  C   C11       1.0  0.9502604218466864  0.4167093115653381  0.6188093663384314  1.0000
  C   C12       1.0  0.04973957790348416  0.4167093115653381  0.8811906330886321  1.0000
  C   C13       1.0  0.5497395781306773  0.08329068883754011  0.3811906334342979  1.0000
  C   C14       1.0  0.4502604220362514  0.08329068883754011  0.11880936643527404  1.0000
  C   C15       1.0  0.04973957777418358  0.5832906892404183  0.38119063346788334  1.0000
  C   C16       1.0  0.9502604217173858  0.5832906892404183  0.11880936671768261  1.0000
  C   C17       1.0  0.42386830225471833  0.9082233799109918  0.5027302515218833  1.0000
  C   C18       1.0  0.5761316981616695  0.9082233799109918  0.997269748331719  1.0000
  C   C19       1.0  0.9238683019358528  0.40822337950811355  0.5027302518042919  1.0000
  C   C20       1.0  0.07613169780517579  0.40822337950811355  0.9972697483653044  1.0000
  C   C21       1.0  0.576131698032369  0.0917766199610886  0.49726974871096996  1.0000
  C   C22       1.0  0.4238683021254177  0.0917766199610886  0.002730251901134466  1.0000
  C   C23       1.0  0.07613169768501725  0.5917766203639667  0.4972697480020229  1.0000
  C   C24       1.0  0.9238683018156941  0.5917766203639667  0.0027302514410104096  1.0000
  C   C25       1.0  0.4689157540183957  0.7018178610531324  0.5218471783678824  1.0000
  C   C26       1.0  0.5310842457226327  0.7018178610531324  0.9781528218017137  1.0000
  C   C27       1.0  0.9689157543748894  0.20181786158393014  0.521847178334297  1.0000
  C   C28       1.0  0.031084246041498412  0.20181786158393014  0.9781528215193052  1.0000
  C   C29       1.0  0.5310842456024742  0.298182138818948  0.4781528214384323  1.0000
  C   C30       1.0  0.46891575389823714  0.298182138818948  0.021847178004601068  1.0000
  C   C31       1.0  0.03108424591219781  0.7981821392218262  0.47815282189855635  1.0000
  C   C32       1.0  0.9689157542455887  0.7981821392218262  0.02184717871354812  1.0000
  C   C33       1.0  0.48659541591916605  0.8113711131692476  0.6886198948830154  1.0000
  C   C34       1.0  0.5134045838310045  0.8113711131692476  0.8113801045440481  1.0000
  C   C35       1.0  0.9865954162665178  0.3113711127663694  0.6886198955919626  1.0000
  C   C36       1.0  0.01340458414072803  0.3113711127663694  0.8113801050041721  1.0000
  C   C37       1.0  0.513404583710846  0.1886288867028327  0.31138010418076667  1.0000
  C   C38       1.0  0.4865954164560828  0.1886288867028327  0.18861989568880524  1.0000
  C   C39       1.0  0.013404584020569493  0.6886288871057109  0.3113801046408907  1.0000
  C   C40       1.0  0.9865954161463593  0.6886288871057109  0.1886198952286812  1.0000
  C   C41       1.0  0.3530610022383018  0.6161270394284956  0.10036923786862822  1.0000
  C   C42       1.0  0.6469389972624096  0.6161270394284956  0.3996307615744051  1.0000
  C   C43       1.0  0.8530610025947956  0.11612703995929344  0.10036923783504274  1.0000
  C   C44       1.0  0.14693899757213316  0.11612703995929344  0.3996307620345292  1.0000
  C   C45       1.0  0.6469389973825681  0.3838729604435847  0.8996307619376867  1.0000
  C   C46       1.0  0.35306100235846033  0.3838729604435847  0.6003692382319096  1.0000
  C   C47       1.0  0.14693899769229168  0.8838729608464629  0.8996307623978106  1.0000
  C   C48       1.0  0.8530610027149541  0.8838729608464629  0.6003692381983242  1.0000
  C   C49       1.0  0.31795520209346667  0.49634272980865296  0.06215610689530116  1.0000
  C   C50       1.0  0.6820447974072448  0.49634272980865296  0.43784389254773215  1.0000
  C   C51       1.0  0.8179552024408183  0.9963427302115311  0.06215610760424823  1.0000
  C   C52       1.0  0.18204479771696824  0.9963427302115311  0.4378438930078562  1.0000
  C   C53       1.0  0.6820447975274032  0.5036572700634273  0.9378438929110137  1.0000
  C   C54       1.0  0.3179552022136252  0.5036572700634273  0.5621561072585826  1.0000
  C   C55       1.0  0.18204479784626887  0.00365726966054918  0.937843892628605  1.0000
  C   C56       1.0  0.817955202570119  0.00365726966054918  0.5621561072249971  1.0000
  C   C57       1.0  0.34776721998163446  0.6990884039274992  0.016145403217846563  1.0000
  C   C58       1.0  0.6522327801761523  0.6990884039274992  0.4838545973942579  1.0000
  C   C59       1.0  0.8477672196719109  0.199088403524621  0.01614540275772254  1.0000
  C   C60       1.0  0.1522327804950178  0.199088403524621  0.48385459711184936  1.0000
  C   C61       1.0  0.6522327803054528  0.30091159687825714  0.9838545970150068  1.0000
  C   C62       1.0  0.3477672194447178  0.30091159687825714  0.5161454024120569  1.0000
  C   C63       1.0  0.15223277994895903  0.8009115963474593  0.9838545970485922  1.0000
  C   C64       1.0  0.8477672197920695  0.8009115963474593  0.516145403121004  1.0000
  C   C65       1.0  0.27839109870507767  0.46253139310473274  0.9470475248910167  1.0000
  C   C66       1.0  0.7216089010359509  0.46253139310473274  0.5529524752785795  1.0000
  C   C67       1.0  0.7783910990615713  0.962531393507611  0.9470475248574312  1.0000
  C   C68       1.0  0.22160890135481648  0.962531393507611  0.552952474996171  1.0000
  C   C69       1.0  0.7216089009157922  0.5374686067673475  0.05295247491529797  1.0000
  C   C70       1.0  0.27839109858491906  0.5374686067673475  0.4470475245277353  1.0000
  C   C71       1.0  0.22160890122551588  0.0374686063644694  0.05295247537542206  1.0000
  C   C72       1.0  0.7783910989322708  0.0374686063644694  0.4470475252366825  1.0000
  C   C73       1.0  0.27374679914937555  0.5480333572797105  0.8658772809048619  1.0000
  C   C74       1.0  0.7262532006007949  0.5480333572797105  0.6341227185222015  1.0000
  C   C75       1.0  0.77374679883051  0.04803335687683234  0.8658772811872707  1.0000
  C   C76       1.0  0.2262532009105185  0.04803335687683234  0.6341227189823256  1.0000
  C   C77       1.0  0.7262532011377117  0.4519666425923698  0.13412271932799122  1.0000
  C   C78       1.0  0.273746799020075  0.4519666425923698  0.36587728128411323  1.0000
  C   C79       1.0  0.22625320079036  0.9519666429952479  0.13412271861904415  1.0000
  C   C80       1.0  0.7737467993765688  0.9519666429952479  0.3658772812505277  1.0000
  C   C81       1.0  0.39352925076400713  0.6503865592956916  0.22514666261430952  1.0000
  C   C82       1.0  0.6064707493937797  0.6503865592956916  0.27485333799779504  1.0000
  C   C83       1.0  0.8935292504542836  0.1503865588928134  0.22514666215418538  1.0000
  C   C84       1.0  0.10647074904642786  0.1503865588928134  0.27485333728884787  1.0000
  C   C85       1.0  0.6064707495230801  0.34961344151006474  0.7748533376185438  1.0000
  C   C86       1.0  0.39352925089330776  0.34961344151006474  0.7251466622350584  1.0000
  C   C87       1.0  0.1064707491665864  0.8496134409792668  0.7748533376521294  1.0000
  C   C88       1.0  0.893529250574442  0.8496134409792668  0.725146662517467  1.0000
  C   C89       1.0  0.30996978578418205  0.666754785990509  0.9009225298393444  1.0000
  C   C90       1.0  0.6900302139568464  0.666754785990509  0.5990774703302519  1.0000
  C   C91       1.0  0.8099697861406757  0.16675478558763085  0.9009225298057587  1.0000
  C   C92       1.0  0.19003021360035272  0.16675478558763085  0.5990774703638374  1.0000
  C   C93       1.0  0.690030213836688  0.3332452138815713  0.09907746996697042  1.0000
  C   C94       1.0  0.30996978633024075  0.3332452138815713  0.4009225299026014  1.0000
  C   C95       1.0  0.19003021414641147  0.8332452142844494  0.09907747042709451  1.0000
  C   C96       1.0  0.8099697860205172  0.8332452142844494  0.40092252944247747  1.0000
  N   N1        1.0  0.4330902457401589  0.8027048518591338  0.455034829893955  1.0000
  N   N2        1.0  0.5669097537605524  0.8027048518591338  0.04496516954907834  1.0000
  N   N3        1.0  0.9330902460875105  0.30270485145625564  0.455034830602902  1.0000
  N   N4        1.0  0.06690975407027606  0.30270485145625564  0.044965170009202415  1.0000
  N   N5        1.0  0.566909753880711  0.19729514801294654  0.5449651699123598  1.0000
  N   N6        1.0  0.4330902458603174  0.19729514801294654  0.9550348302572363  1.0000
  N   N7        1.0  0.06690975419957666  0.6972951484158247  0.5449651696299512  1.0000
  N   N8        1.0  0.933090246216811  0.6972951484158247  0.9550348302236509  1.0000
  O   O1        1.0  0.3856638925659916  0.7687096911529803  0.24445684850851848  1.0000
  O   O2        1.0  0.6143361069347197  0.7687096911529803  0.25554315093451485  1.0000
  O   O3        1.0  0.8856638929224853  0.26870969075010204  0.24445684847493304  1.0000
  O   O4        1.0  0.11433610724444333  0.26870969075010204  0.2555431513946389  1.0000
  O   O5        1.0  0.6143361070548783  0.2312903087191001  0.7555431512977961  1.0000
  O   O6        1.0  0.38566389268615014  0.2312903087191001  0.7444568488718  1.0000
  O   O7        1.0  0.11433610736460187  0.7312903091219783  0.7555431517579203  1.0000
  O   O8        1.0  0.8856638930426439  0.7312903091219783  0.7444568488382145  1.0000
  O   O9        1.0  0.4294013543023128  0.5695767998333428  0.2999814109075607  1.0000
  O   O10       1.0  0.5705986458646158  0.5695767998333428  0.2000185889620112  1.0000
  O   O11       1.0  0.9294013539834471  0.06957679943046466  0.29998141118996924  1.0000
  O   O12       1.0  0.07059864617433945  0.06957679943046466  0.20001858942213527  1.0000
  O   O13       1.0  0.5705986459847744  0.43042320097241354  0.7000185893252926  1.0000
  O   O14       1.0  0.4294013537562541  0.43042320097241354  0.7999814108443035  1.0000
  O   O15       1.0  0.07059864630364004  0.9304232004416156  0.7000185890428842  1.0000
  O   O16       1.0  0.9294013541127478  0.9304232004416156  0.7999814108107182  1.0000
  F   F1        1.0  0.3189975592337342  0.4086962107846499  0.13498214150053978  1.0000
  F   F2        1.0  0.6810024402578351  0.4086962107846499  0.36501785868502606  1.0000
  F   F3        1.0  0.8189975595902279  0.908696211187528  0.13498214146695434  1.0000
  F   F4        1.0  0.18100244057670078  0.908696211187528  0.3650178584026176  1.0000
  F   F5        1.0  0.6810024403871358  0.5913037890874305  0.8650178583057749  1.0000
  F   F6        1.0  0.31899755936303476  0.5913037890874305  0.6349821411212887  1.0000
  F   F7        1.0  0.18100244069685933  0.09130378961822831  0.865017858765899  1.0000
  F   F8        1.0  0.8189975597103865  0.09130378961822831  0.6349821418302357  1.0000
  F   F9        1.0  0.3808614961635208  0.816264877993792  0.04382734373518904  1.0000
  F   F10       1.0  0.6191385040034079  0.816264877993792  0.4561726561343829  1.0000
  F   F11       1.0  0.8808614958537972  0.3162648785245899  0.04382734327506495  1.0000
  F   F12       1.0  0.11913850364691414  0.3162648785245899  0.45617265616796837  1.0000
  F   F13       1.0  0.6191385041235664  0.18373512187828828  0.9561726564976643  1.0000
  F   F14       1.0  0.3808614962836793  0.18373512187828828  0.5438273440984704  1.0000
  F   F15       1.0  0.1191385037670727  0.6837351222811664  0.9561726565312498  1.0000
  F   F16       1.0  0.8808614959739558  0.6837351222811664  0.5438273436383464  1.0000
  F   F17       1.0  0.24411170786474704  0.3474553203484641  0.9134627143025902  1.0000
  F   F18       1.0  0.7558882918762815  0.3474553203484641  0.586537285867006  1.0000
  F   F19       1.0  0.7441117075550234  0.8474553207513423  0.913462713842466  1.0000
  F   F20       1.0  0.2558882921951471  0.8474553207513423  0.5865372855845975  1.0000
  F   F21       1.0  0.7558882924223402  0.6525446795236162  0.08653728593026322  1.0000
  F   F22       1.0  0.2441117077445885  0.6525446795236162  0.4134627139393088  1.0000
  F   F23       1.0  0.25588829206584646  0.15254467912073805  0.08653728596384865  1.0000
  F   F24       1.0  0.7441117080919402  0.15254467912073805  0.41346271464825585  1.0000
  F   F25       1.0  0.3073368817447988  0.75025610840353  0.8240081545273716  1.0000
  F   F26       1.0  0.6926631180053717  0.75025610840353  0.6759918448996919  1.0000
  F   F27       1.0  0.8073368814259332  0.2502561080006519  0.8240081548097802  1.0000
  F   F28       1.0  0.1926631183150953  0.2502561080006519  0.6759918453598159  1.0000
  F   F29       1.0  0.6926631185422886  0.24974389146855025  0.17599184570548165  1.0000
  F   F30       1.0  0.30733688161549816  0.24974389146855025  0.32400815490662277  1.0000
  F   F31       1.0  0.1926631181949368  0.7497438918714284  0.17599184499653453  1.0000
  F   F32       1.0  0.8073368819719918  0.7497438918714284  0.3240081548730373  1.0000
  F   F33       1.0  0.2335825823514111  0.5158498314976915  0.7549984303282256  1.0000
  F   F34       1.0  0.7664174180558346  0.5158498314976915  0.745001570267909  1.0000
  F   F35       1.0  0.7335825820416876  0.0158498310948133  0.7549984298681017  1.0000
  F   F36       1.0  0.26641741769934096  0.0158498310948133  0.7450015703014945  1.0000
  F   F37       1.0  0.7664174179356762  0.48415016837438885  0.24500156990462765  1.0000
  F   F38       1.0  0.23358258223125258  0.48415016837438885  0.2549984299649443  1.0000
  F   F39       1.0  0.2664174175791824  0.9841501687772669  0.24500156993821307  1.0000
  F   F40       1.0  0.7335825819215289  0.9841501687772669  0.2549984295048202  1.0000
