data_image0
_chemical_formula_structural       H76C60N8O28I12
_chemical_formula_sum              "H76 C60 N8 O28 I12"
_cell_length_a       11.721764365625663
_cell_length_b       11.792586979210574
_cell_length_c       15.610206453502604
_cell_angle_alpha    90.0
_cell_angle_beta     101.39649204709555
_cell_angle_gamma    90.0

_space_group_name_H-M_alt    "P 1"
_space_group_IT_number       1

loop_
  _space_group_symop_operation_xyz
  'x, y, z'

loop_
  _atom_site_type_symbol
  _atom_site_label
  _atom_site_symmetry_multiplicity
  _atom_site_fract_x
  _atom_site_fract_y
  _atom_site_fract_z
  _atom_site_occupancy
  H   H1        1.0  0.08461180169632065  0.3713229800822832  0.07392032682483114  1.0000
  H   H2        1.0  0.415388198568745  0.8713229801157544  0.42607967380834316  1.0000
  H   H3        1.0  0.9153881978126307  0.6286770199846593  0.9260796737843134  1.0000
  H   H4        1.0  0.5846118017942863  0.12867701995118808  0.5739203268045249  1.0000
  H   H5        1.0  0.3386698744585043  0.27439781751913916  0.663099183411677  1.0000
  H   H6        1.0  0.16133012577343175  0.7743978175526105  0.8369008164651076  1.0000
  H   H7        1.0  0.6613301257374269  0.7256021825478034  0.33690081654771037  1.0000
  H   H8        1.0  0.8386698744224994  0.22560218251433206  0.16309918349427974  1.0000
  H   H9        1.0  0.37173977205817677  0.13042064414800333  0.6905631894192403  1.0000
  H   H10       1.0  0.12826022731967957  0.6304206441814746  0.809436810453821  1.0000
  H   H11       1.0  0.6282602272836746  0.8695793559189392  0.30943681053642363  1.0000
  H   H12       1.0  0.8717397728762517  0.369579355885468  0.19056318950556644  1.0000
  H   H13       1.0  0.22800184489290848  0.16843955049911963  0.6396667789781291  1.0000
  H   H14       1.0  0.27199815533902766  0.6684395505325909  0.8603332208986555  1.0000
  H   H15       1.0  0.7719981553030226  0.8315604495678229  0.3603332209812582  1.0000
  H   H16       1.0  0.7280018448569036  0.33156044953435165  0.1396667790607319  1.0000
  H   H17       1.0  0.46187667462460563  0.8325587216196427  0.17254810397967982  1.0000
  H   H18       1.0  0.03812332547336004  0.33255872158617145  0.3274518960000139  1.0000
  H   H19       1.0  0.5381233255713256  0.1674412784472998  0.8274518959797076  1.0000
  H   H20       1.0  0.9618766747225712  0.6674412784807711  0.6725481039593735  1.0000
  H   H21       1.0  0.4008646199861156  0.8776008553716684  0.2621405052372653  1.0000
  H   H22       1.0  0.09913538011184998  0.37760085533819715  0.23785949474242837  1.0000
  H   H23       1.0  0.5991353802098157  0.12239914469527406  0.7378594947221221  1.0000
  H   H24       1.0  0.9008646200840811  0.6223991447287452  0.762140505216959  1.0000
  H   H25       1.0  0.3179972418979918  0.7894146523075452  0.1791999071732471  1.0000
  H   H26       1.0  0.18200275819997386  0.28941465227407387  0.3208000928064466  1.0000
  H   H27       1.0  0.6820027582979394  0.21058534775939736  0.8208000927861403  1.0000
  H   H28       1.0  0.8179972419959574  0.7105853477928685  0.6791999071529408  1.0000
  H   H29       1.0  0.21153644199257032  0.8725217128471663  0.05860925889313166  1.0000
  H   H30       1.0  0.2884635581053953  0.37252171281369495  0.441390741086562  1.0000
  H   H31       1.0  0.7884635582033609  0.12747828721977633  0.9413907410662556  1.0000
  H   H32       1.0  0.7115364420905359  0.6274782872532476  0.5586092588728253  1.0000
  H   H33       1.0  0.15349242574580277  0.08666096606297088  0.7517275802687349  1.0000
  H   H34       1.0  0.34650757448613334  0.5866609660964421  0.7482724196080497  1.0000
  H   H35       1.0  0.8465075744501285  0.9133390340039717  0.24827241969065245  1.0000
  H   H36       1.0  0.6534924257097979  0.41333903397050037  0.2517275803513377  1.0000
  H   H37       1.0  0.48402110835867507  0.505409456848372  0.8615311118448568  1.0000
  H   H38       1.0  0.0159788918732611  0.0054094568149007085  0.6384688880319278  1.0000
  H   H39       1.0  0.5159788918372562  0.49459054321857054  0.1384688881145306  1.0000
  H   H40       1.0  0.9840211083226702  0.9945905432520418  0.36153111192745946  1.0000
  H   H41       1.0  0.4006735376109123  0.40478617189046573  0.8152956472282418  1.0000
  H   H42       1.0  0.09932646262102389  0.904786171923937  0.6847043526485429  1.0000
  H   H43       1.0  0.599326462585019  0.5952138273284864  0.1847043527311457  1.0000
  H   H44       1.0  0.9006735375749074  0.0952138281430055  0.3152956473108444  1.0000
  H   H45       1.0  0.35608262641249394  0.3703220682364933  0.19801457316261628  1.0000
  H   H46       1.0  0.14391737368547167  0.8703220682699646  0.3019854268170774  1.0000
  H   H47       1.0  0.6439173737834373  0.6296779318304493  0.8019854267967712  1.0000
  H   H48       1.0  0.8560826265104596  0.129677931796978  0.6980145731423101  1.0000
  H   H49       1.0  0.2747982230076011  0.2479713437903983  0.15369354325883816  1.0000
  H   H50       1.0  0.2252017770903645  0.7479713438238696  0.3463064567208555  1.0000
  H   H51       1.0  0.7252017771883302  0.7520286562765442  0.8463064567005493  1.0000
  H   H52       1.0  0.7747982231055668  0.25202865624307297  0.6536935432385319  1.0000
  H   H53       1.0  0.17033090269159568  0.5500059597978211  0.034594565353052165  1.0000
  H   H54       1.0  0.3296690974063699  0.05000595976434986  0.4654054346266415  1.0000
  H   H55       1.0  0.8296690975043355  0.44999404026912143  0.9654054346063352  1.0000
  H   H56       1.0  0.6703309027895613  0.9499940403025926  0.5345945653327459  1.0000
  H   H57       1.0  0.291086028401554  0.5576925106928706  0.12474333238255288  1.0000
  H   H58       1.0  0.2089139716964116  0.05769251065939935  0.3752566675971408  1.0000
  H   H59       1.0  0.7089139717943772  0.44230748937407194  0.8752566675768345  1.0000
  H   H60       1.0  0.7910860284995197  0.9423074894075432  0.6247433323622466  1.0000
  H   H61       1.0  0.36629950407134076  0.5674398468967622  0.9865171299137743  1.0000
  H   H62       1.0  0.13370049616059546  0.06743984686329095  0.5134828699630104  1.0000
  H   H63       1.0  0.6337004961245906  0.4325601531701803  0.013482870045613148  1.0000
  H   H64       1.0  0.8662995040353358  0.9325601532036515  0.486517129996377  1.0000
  H   H65       1.0  0.28736516622106634  0.4411593468991536  0.9468081550781996  1.0000
  H   H66       1.0  0.21263483315678994  0.9411593469326248  0.5531918447948617  1.0000
  H   H67       1.0  0.712634833120785  0.5588406531677889  0.05319184487746437  1.0000
  H   H68       1.0  0.7873651670391413  0.05884065313431763  0.44680815516452577  1.0000
  H   H69       1.0  0.3478403024003954  0.26703531172180545  0.0148221926246645  1.0000
  H   H70       1.0  0.15215969769757023  0.7670353117552767  0.4851778073550292  1.0000
  H   H71       1.0  0.652159697795536  0.7329646883451371  0.9851778073347229  1.0000
  H   H72       1.0  0.8478403024983611  0.23296468831166578  0.5148221926043581  1.0000
  H   H73       1.0  0.4688730568076776  0.2648648931321337  0.10517102504757166  1.0000
  H   H74       1.0  0.031126943290288013  0.7648648931656049  0.394828974932122  1.0000
  H   H75       1.0  0.5311269425341738  0.7351351069348088  0.8948289749080923  1.0000
  H   H76       1.0  0.9688730569056433  0.23513510690133757  0.6051710250272654  1.0000
  C   C1        1.0  0.1964476382262362  0.04260609659998746  0.021222099123023568  1.0000
  C   C2        1.0  0.30355236187172946  0.5426060966334587  0.47877790085667016  1.0000
  C   C3        1.0  0.8035523619696952  0.9573939034669551  0.9787779008363637  1.0000
  C   C4        1.0  0.6964476383242018  0.4573939034334838  0.5212220991027172  1.0000
  C   C5        1.0  0.22713214408762838  0.05943411833515421  0.9396919119595788  1.0000
  C   C6        1.0  0.272867855290228  0.5594341183686254  0.5603080879134826  1.0000
  C   C7        1.0  0.7728678561083029  0.9405658817317883  0.06030808799980864  1.0000
  C   C8        1.0  0.7271321440516233  0.440565881698317  0.4396919120421815  1.0000
  C   C9        1.0  0.1104860804656285  0.11234056041608984  0.04499303927850053  1.0000
  C   C10       1.0  0.38951391963233706  0.6123405604495611  0.4550069607011931  1.0000
  C   C11       1.0  0.8895139197303027  0.8876594396508526  0.9550069606808869  1.0000
  C   C12       1.0  0.6104860805635941  0.3876594396173814  0.5449930392581942  1.0000
  C   C13       1.0  0.9621611682358935  0.27042035438211176  0.01321730638520812  1.0000
  C   C14       1.0  0.5378388317569328  0.7704203544155831  0.48678269300330135  1.0000
  C   C15       1.0  0.03783883196003773  0.7295796456848308  0.9867826935741792  1.0000
  C   C16       1.0  0.4621611684389984  0.22957964565135952  0.513217306956086  1.0000
  C   C17       1.0  0.17069767339981204  0.1417263856477302  0.8812250412450836  1.0000
  C   C18       1.0  0.32930232597804426  0.6417263856812015  0.6187749586279775  1.0000
  C   C19       1.0  0.8293023267961193  0.8582736144192122  0.11877495871430369  1.0000
  C   C20       1.0  0.6706976733638071  0.358273614385741  0.38122504132768636  1.0000
  C   C21       1.0  0.08663474334277016  0.21203589885816443  0.9066220851089649  1.0000
  C   C22       1.0  0.41336525688916603  0.7120358988916357  0.5933779147678198  1.0000
  C   C23       1.0  0.9133652568531612  0.7879641003607877  0.09337791485042252  1.0000
  C   C24       1.0  0.5866347433067652  0.2879641003273165  0.4066220851915676  1.0000
  C   C25       1.0  0.05636396932560768  0.1976661892856391  0.9885553643592996  1.0000
  C   C26       1.0  0.44363603107342847  0.6976661893191103  0.5114446361709656  1.0000
  C   C27       1.0  0.9436360308703235  0.8023338107813034  0.011444635600087764  1.0000
  C   C28       1.0  0.5563639692896029  0.30233381074783217  0.4885553644419024  1.0000
  C   C29       1.0  0.33729337422517436  0.9655755340260589  0.14308613361729275  1.0000
  C   C30       1.0  0.16270662587279125  0.4655755339925877  0.3569138663624009  1.0000
  C   C31       1.0  0.662706625116677  0.034424466040883554  0.8569138663383712  1.0000
  C   C32       1.0  0.83729337432314  0.5344244660743549  0.6430861335969865  1.0000
  C   C33       1.0  0.27932764632238904  0.214400023036273  0.7761895235175322  1.0000
  C   C34       1.0  0.22067235390954712  0.7144000230697443  0.7238104763592526  1.0000
  C   C35       1.0  0.7206723538735423  0.7855999770306694  0.22381047644185526  1.0000
  C   C36       1.0  0.7793276462863841  0.2855999769971983  0.2761895236001349  1.0000
  C   C37       1.0  0.3048616732237734  0.19659731525297588  0.6866767336561296  1.0000
  C   C38       1.0  0.19513832700816278  0.6965973152864472  0.813323266220655  1.0000
  C   C39       1.0  0.6951383269721578  0.8034026848139667  0.3133232663032577  1.0000
  C   C40       1.0  0.8048616731877686  0.30340268478049537  0.18667673373873242  1.0000
  C   C41       1.0  0.38074317073612335  0.8592350336582637  0.19200074668825537  1.0000
  C   C42       1.0  0.11925682936184229  0.3592350336247924  0.3079992532914383  1.0000
  C   C43       1.0  0.6192568286057282  0.14076496640867883  0.8079992532674086  1.0000
  C   C44       1.0  0.8807431708340888  0.6407649664421501  0.6920007466679491  1.0000
  C   C45       1.0  0.31032133578251786  0.32928435353884883  0.1373889008093277  1.0000
  C   C46       1.0  0.18967866431544778  0.8292843535723201  0.362611099170366  1.0000
  C   C47       1.0  0.6896786635593335  0.6707156465280937  0.8626110991463363  1.0000
  C   C48       1.0  0.8103213358804835  0.17071564649462243  0.6373889007890213  1.0000
  C   C49       1.0  0.24940583286368218  0.5068807608150577  0.06771993885946194  1.0000
  C   C50       1.0  0.25059416723428346  0.006880760781586522  0.43228006112023176  1.0000
  C   C51       1.0  0.7505941673322489  0.4931192392518847  0.9322800610999255  1.0000
  C   C52       1.0  0.7494058329616479  0.9931192392853561  0.5677199388391556  1.0000
  C   C53       1.0  0.331585723616964  0.48703292162484235  0.005727193965866021  1.0000
  C   C54       1.0  0.16841427648100163  0.9870329216583136  0.4942728060138276  1.0000
  C   C55       1.0  0.6684142765789672  0.5129670784421002  0.9942728059935213  1.0000
  C   C56       1.0  0.8315857237149296  0.012967078408628922  0.5057271939455596  1.0000
  C   C57       1.0  0.39139099931372856  0.31259193224511356  0.0739685459565609  1.0000
  C   C58       1.0  0.10860899993015724  0.8125919322785847  0.4260314540194094  1.0000
  C   C59       1.0  0.6086090000281229  0.6874080669738386  0.9260314539991031  1.0000
  C   C60       1.0  0.8913909994116942  0.18740806694036738  0.5739685459362547  1.0000
  N   N1        1.0  0.24579641029034538  0.9521649261349491  0.07576135687271057  1.0000
  N   N2        1.0  0.25420358980762026  0.4521649261014779  0.4242386431069831  1.0000
  N   N3        1.0  0.7542035899055859  0.047835073084003  0.9242386430866768  1.0000
  N   N4        1.0  0.7457964095342311  0.5478350731174743  0.5757613568486809  1.0000
  N   N5        1.0  0.19422848364362835  0.14762175959091686  0.7958475068025287  1.0000
  N   N6        1.0  0.30577151658830776  0.6476217596243882  0.7041524930742558  1.0000
  N   N7        1.0  0.8057715165523028  0.8523782404760256  0.20415249315685854  1.0000
  N   N8        1.0  0.6942284836076236  0.3523782404425544  0.29584750688513156  1.0000
  O   O1        1.0  0.8578628326950147  0.248034860811839  0.9905594961404406  1.0000
  O   O2        1.0  0.6421371667448023  0.7480348608453103  0.509440503794917  1.0000
  O   O3        1.0  0.14213716664683662  0.7519651392551036  0.00944050381522337  1.0000
  O   O4        1.0  0.357862833451129  0.2519651392216322  0.4905594961644703  1.0000
  O   O5        1.0  0.9956617021275445  0.3624441971498711  0.060095971869617834  1.0000
  O   O6        1.0  0.5043382980323818  0.8624441971833423  0.43990402817237223  1.0000
  O   O7        1.0  0.004338298068386673  0.6375558029170715  0.9399040280897695  1.0000
  O   O8        1.0  0.49566170216354943  0.1375558028836002  0.560095971787015  1.0000
  O   O9        1.0  0.38303576925372945  0.06031847305887897  0.16180212940259994  1.0000
  O   O10       1.0  0.1169642299901564  0.5603184730923503  0.33819787057337036  1.0000
  O   O11       1.0  0.6169642300881221  0.9396815261600732  0.838197870553064  1.0000
  O   O12       1.0  0.8830357693516949  0.4396815269745923  0.6618021293822937  1.0000
  O   O13       1.0  0.3342778491380607  0.28232753558395857  0.8308595276209503  1.0000
  O   O14       1.0  0.16572215109387542  0.7823275356174298  0.6691404722558343  1.0000
  O   O15       1.0  0.6657221510578705  0.7176724644829839  0.16914047233843713  1.0000
  O   O16       1.0  0.8342778491020558  0.2176724644495127  0.330859527703553  1.0000
  O   O17       1.0  0.43717298325112636  0.4790539014008763  0.805142847501451  1.0000
  O   O18       1.0  0.06282701698080978  0.9790539014343476  0.6948571523753336  1.0000
  O   O19       1.0  0.5628270169448049  0.5209460986660662  0.19485715245793636  1.0000
  O   O20       1.0  0.9371729832151214  0.020946098632594983  0.30514284758405374  1.0000
  O   O21       1.0  0.4306911059462295  0.4210814971095013  0.047922393294869275  1.0000
  O   O22       1.0  0.06930889415173609  0.9210814971429726  0.4520776066848244  1.0000
  O   O23       1.0  0.5693088942497017  0.5789185029574412  0.9520776066645181  1.0000
  O   O24       1.0  0.9306911060441951  0.07891850292396997  0.5479223932745629  1.0000
  O   O25       1.0  0.21300153357568966  0.3998529888575521  0.09849917325539206  1.0000
  O   O26       1.0  0.28699846566819615  0.8998529888910234  0.40150082672057824  1.0000
  O   O27       1.0  0.7869984657661618  0.6001470112093904  0.901500826700272  1.0000
  O   O28       1.0  0.7130015336736554  0.10014701117591915  0.5984991732350857  1.0000
  I   I1        1.0  0.05738200491671541  0.08134011406411623  0.16482907381195253  1.0000
  I   I2        1.0  0.44261799534835017  0.5813401140975875  0.3351709268212218  1.0000
  I   I3        1.0  0.9426179954463159  0.9186598860028263  0.8351709268009154  1.0000
  I   I4        1.0  0.5573820050146809  0.418659885969355  0.6648290737916462  1.0000
  I   I5        1.0  0.0029980999320020473  0.33351841092490186  0.816084891647729  1.0000
  I   I6        1.0  0.4970018994458543  0.8335184109583731  0.6839151082253324  1.0000
  I   I7        1.0  0.9970018994098494  0.6664815891420406  0.18391510830793506  1.0000
  I   I8        1.0  0.5029980998959971  0.16648158910856936  0.31608489173033166  1.0000
  I   I9        1.0  0.3606866742951014  0.9634981476100684  0.9031708805063225  1.0000
  I   I10       1.0  0.13931332508275496  0.4634981475765971  0.5968291193667387  1.0000
  I   I11       1.0  0.6393133250467501  0.03650185245687418  0.09682911944934142  1.0000
  I   I12       1.0  0.8606866742590963  0.5365018524903454  0.4031708805889253  1.0000
