data_image0
_chemical_formula_structural       H96C96N24O16F12I4
_chemical_formula_sum              "H96 C96 N24 O16 F12 I4"
_cell_length_a       6.921438963909114
_cell_length_b       18.48191285438725
_cell_length_c       19.193775761098635
_cell_angle_alpha    90.0
_cell_angle_beta     91.06174498743694
_cell_angle_gamma    90.0

_space_group_name_H-M_alt    "P 1"
_space_group_IT_number       1

loop_
  _space_group_symop_operation_xyz
  'x, y, z'

loop_
  _atom_site_type_symbol
  _atom_site_label
  _atom_site_symmetry_multiplicity
  _atom_site_fract_x
  _atom_site_fract_y
  _atom_site_fract_z
  _atom_site_occupancy
  H   H1        1.0  0.2606323990513543  0.4728626343417388  0.6147967235688665  1.0000
  H   H2        1.0  0.2393676022017888  0.9728626344935831  0.8852032763357814  1.0000
  H   H3        1.0  0.73936760123351  0.52713736596195  0.38520327649353725  1.0000
  H   H4        1.0  0.7606323980830755  0.02713736581010561  0.11479672372662234  1.0000
  H   H5        1.0  0.1548654925988136  0.24843733633935206  0.8595965944246615  1.0000
  H   H6        1.0  0.3451345072094293  0.7484373364911965  0.6404034054774312  1.0000
  H   H7        1.0  0.8451345076663591  0.7515626639643367  0.14040340511665672  1.0000
  H   H8        1.0  0.654865493075435  0.2515626638124923  0.3595965945849727  1.0000
  H   H9        1.0  0.1224600720069985  0.3433590381037641  0.8516402797713596  1.0000
  H   H10       1.0  0.37753992780124435  0.8433590382556084  0.6483597201307334  1.0000
  H   H11       1.0  0.8775399282778656  0.6566409621999246  0.14835972029104433  1.0000
  H   H12       1.0  0.6224600724836199  0.15664096204808026  0.35164027993167046  1.0000
  H   H13       1.0  0.2575391932359999  0.17866275834193004  0.7605679887243004  1.0000
  H   H14       1.0  0.242460806572243  0.6786627584937743  0.7394320111777922  1.0000
  H   H15       1.0  0.7424608070488643  0.8213372414206892  0.23943201133810335  1.0000
  H   H16       1.0  0.7575391937126211  0.32133724180991435  0.26056798888461147  1.0000
  H   H17       1.0  0.18980536183541444  0.17303031700211013  0.528721234370626  1.0000
  H   H18       1.0  0.3101946379728284  0.6730303171539544  0.9712787655314667  1.0000
  H   H19       1.0  0.8101946370045495  0.8269696827605091  0.4712787656892226  1.0000
  H   H20       1.0  0.6898053623120357  0.3269696826086647  0.02872123453093704  1.0000
  H   H21       1.0  0.4208533183973556  0.1328155093760928  0.5227556365962945  1.0000
  H   H22       1.0  0.07914668143057865  0.6328155089868677  0.9772443638268836  1.0000
  H   H23       1.0  0.5791466818875085  0.8671844909275959  0.47724436346610916  1.0000
  H   H24       1.0  0.9208533174093854  0.36718449077575155  0.02275563623296503  1.0000
  H   H25       1.0  0.5784154790999131  0.24971566505922763  0.5106113724718636  1.0000
  H   H26       1.0  0.9215845206147788  0.7497156646700024  0.9893886278810072  1.0000
  H   H27       1.0  0.42158452118495116  0.7502843352444611  0.48938862759054025  1.0000
  H   H28       1.0  0.07841547967008536  0.25028433509261677  0.010611372181396518  1.0000
  H   H29       1.0  0.36678870375320816  0.253550311427186  0.4584194898631464  1.0000
  H   H30       1.0  0.13321129567661957  0.7535503115790304  0.041580510427320645  1.0000
  H   H31       1.0  0.6332112950867558  0.7464496883354331  0.5415805101967022  1.0000
  H   H32       1.0  0.8667887046082446  0.24644968872465836  0.9584194896350832  1.0000
  H   H33       1.0  0.36468480266645803  0.4202918226700801  0.5009282448869002  1.0000
  H   H34       1.0  0.13531519714178494  0.9202918222808548  0.9990717550151925  1.0000
  H   H35       1.0  0.6353151976184064  0.5797081776336087  0.4990717551755036  1.0000
  H   H36       1.0  0.8646848016981791  0.0797081774817643  0.0009282450446560006  1.0000
  H   H37       1.0  0.48439555511101123  0.07183211502292386  0.6220086096684578  1.0000
  H   H38       1.0  0.015604444697231644  0.5718321151747682  0.8779913902336348  1.0000
  H   H39       1.0  0.5156044437289528  0.9281678847396954  0.37799139039139074  1.0000
  H   H40       1.0  0.9843955555876325  0.428167884587851  0.12200860982876885  1.0000
  H   H41       1.0  0.23272497846329002  0.07191504312739419  0.6415867309864368  1.0000
  H   H42       1.0  0.26727502134495285  0.571915042738169  0.8584132689156558  1.0000
  H   H43       1.0  0.7672750203569826  0.9280849571762947  0.3584132685523263  1.0000
  H   H44       1.0  0.7327249789399113  0.4280849570244502  0.14158673114674789  1.0000
  H   H45       1.0  0.4079534012614814  0.1027355233713957  0.7047208260433016  1.0000
  H   H46       1.0  0.0920465985467615  0.6027355235232401  0.7952791738587912  1.0000
  H   H47       1.0  0.5920465990233827  0.897264476932293  0.2952791740191022  1.0000
  H   H48       1.0  0.9079534017381027  0.3972644767804487  0.2047208262036126  1.0000
  H   H49       1.0  0.8423587919430794  0.2087027674240098  0.6094341479291615  1.0000
  H   H50       1.0  0.6576412077716125  0.7087027670347846  0.8905658524237091  1.0000
  H   H51       1.0  0.15764120834178488  0.7912972328796789  0.39056585213324224  1.0000
  H   H52       1.0  0.34235879251325163  0.2912972327278346  0.10943414763869455  1.0000
  H   H53       1.0  0.5231414213075324  0.2779483736598493  0.9066808546277606  1.0000
  H   H54       1.0  0.976858578387468  0.7779483738116937  0.5933191452040248  1.0000
  H   H55       1.0  0.47685857897733186  0.72205162610277  0.09331914543464323  1.0000
  H   H56       1.0  0.023141421897396056  0.2220516259509255  0.40668085485837896  1.0000
  H   H57       1.0  0.5961496707258213  0.1988051945136075  0.8624186815277409  1.0000
  H   H58       1.0  0.9038503289888707  0.6988051941243824  0.63758131882513  1.0000
  H   H59       1.0  0.40385032811414284  0.8011948057900813  0.13758131853210773  1.0000
  H   H60       1.0  0.0961496712959935  0.30119480563823686  0.36241868123727383  1.0000
  H   H61       1.0  0.5737771769273061  0.3967549137241677  0.8505629801219222  1.0000
  H   H62       1.0  0.9262228227676943  0.8967549133349425  0.6494370197098632  1.0000
  H   H63       1.0  0.4262228233575581  0.603245086579521  0.14943701994048159  1.0000
  H   H64       1.0  0.07377717607226965  0.10324508642767667  0.3505629803499854  1.0000
  H   H65       1.0  0.9388352809572572  0.5122576253113648  0.6927854451185682  1.0000
  H   H66       1.0  0.5611647187377434  0.012257625159520365  0.8072145547132172  1.0000
  H   H67       1.0  0.06116471932760714  0.48774237445125446  0.3072145549438356  1.0000
  H   H68       1.0  0.43883528152742934  0.9877423746030988  0.1927854448281012  1.0000
  H   H69       1.0  0.7281815372984063  0.5608892110720691  0.6669915050591553  1.0000
  H   H70       1.0  0.7718184623965941  0.06088921092022484  0.83300849477263  1.0000
  H   H71       1.0  0.2718184629864578  0.43911078869055  0.33300849500324853  1.0000
  H   H72       1.0  0.22818153644336991  0.9391107888423944  0.16699150528721854  1.0000
  H   H73       1.0  0.6386934999496998  0.47334566605335515  0.5794596331046087  1.0000
  H   H74       1.0  0.8613064997453006  0.9733456662051996  0.9205403667271765  1.0000
  H   H75       1.0  0.361306500315473  0.526654333709264  0.42054036643670967  1.0000
  H   H76       1.0  0.13869350053956356  0.026654333557419665  0.07945963333522713  1.0000
  H   H77       1.0  0.8910873733386017  0.48385274135069933  0.5729360372164044  1.0000
  H   H78       1.0  0.6089126278012991  0.9838527409614742  0.9270639626179361  1.0000
  H   H79       1.0  0.10891262694626262  0.5161472589529894  0.4270639628459994  1.0000
  H   H80       1.0  0.39108737246387365  0.01614725880114503  0.07293603692338214  1.0000
  H   H81       1.0  0.8814538535566478  0.3159242360897704  0.5293946581294315  1.0000
  H   H82       1.0  0.6185461461580439  0.8159242362416147  0.9706053422234392  1.0000
  H   H83       1.0  0.11854614672821628  0.6840757636728488  0.47060534193297227  1.0000
  H   H84       1.0  0.3814538541268202  0.184075764062074  0.02939465783896446  1.0000
  H   H85       1.0  0.580477092707192  0.5760989516554564  0.7635382435586036  1.0000
  H   H86       1.0  0.9195229069878084  0.07609895150361208  0.7364617562731817  1.0000
  H   H87       1.0  0.41952290613277193  0.4239010486482323  0.2364617565012449  1.0000
  H   H88       1.0  0.0804770932970558  0.9239010482590071  0.26353824378922214  1.0000
  H   H89       1.0  0.7106818757246336  0.5295649350319638  0.8303597122759666  1.0000
  H   H90       1.0  0.7893181239703669  0.02956493488011936  0.6696402875558187  1.0000
  H   H91       1.0  0.28931812456023054  0.4704350647306555  0.16964028778643714  1.0000
  H   H92       1.0  0.21068187486959714  0.9704350648824999  0.33035971250402985  1.0000
  H   H93       1.0  0.471800004307168  0.500983652122462  0.8067137369875516  1.0000
  H   H94       1.0  0.02819999694597507  0.0009836519706175582  0.6932862629170964  1.0000
  H   H95       1.0  0.5281999959776962  0.49901634818122675  0.19328626307485225  1.0000
  H   H96       1.0  0.971800003338889  0.9990163477920017  0.30671373714530736  1.0000
  C   C1        1.0  0.3023346138686439  0.29923290589952056  0.624814345720037  1.0000
  C   C2        1.0  0.19766538593959898  0.799232906051365  0.8751856541820557  1.0000
  C   C3        1.0  0.6976653864162203  0.7007670944041682  0.37518565434236684  1.0000
  C   C4        1.0  0.8023346128806736  0.2007670942523238  0.12481434535670735  1.0000
  C   C5        1.0  0.2574149289151538  0.36461280134217017  0.657211281281765  1.0000
  C   C6        1.0  0.24258507089308912  0.8646128014940145  0.8427887186203277  1.0000
  C   C7        1.0  0.7425850713697105  0.6353871989615185  0.3427887187806388  1.0000
  C   C8        1.0  0.7574149293720837  0.1353871988096742  0.1572112809209906  1.0000
  C   C9        1.0  0.20463343675554097  0.36785066045726683  0.7288320613538692  1.0000
  C   C10       1.0  0.29536656305270187  0.8678506606091112  0.7711679385482234  1.0000
  C   C11       1.0  0.795366562084423  0.6321493398464219  0.27116793870597933  1.0000
  C   C12       1.0  0.7046334372321623  0.13214933969457754  0.22883206151418028  1.0000
  C   C13       1.0  0.2063485658532398  0.29293632713536005  0.763902603011221  1.0000
  C   C14       1.0  0.2936514339550031  0.7929363272872044  0.7360973968908717  1.0000
  C   C15       1.0  0.7936514344316244  0.7070636726272591  0.2360973970511827  1.0000
  C   C16       1.0  0.7063485663298611  0.2070636724754148  0.2639026031715321  1.0000
  C   C17       1.0  0.2605577501554339  0.2289330673364588  0.730820297416539  1.0000
  C   C18       1.0  0.23944225109770917  0.7289330669472336  0.769179702488109  1.0000
  C   C19       1.0  0.7394422501294302  0.77106693296723  0.26917970264586477  1.0000
  C   C20       1.0  0.760557749187155  0.2710669328153856  0.23082029757429479  1.0000
  C   C21       1.0  0.30674626870796456  0.2305006502067093  0.6598168855437464  1.0000
  C   C22       1.0  0.19325373110027833  0.7305006503585536  0.8401831143583464  1.0000
  C   C23       1.0  0.6932537315768996  0.7694993500969795  0.34018311451865746  1.0000
  C   C24       1.0  0.8067462691845859  0.2694993499451351  0.15981688570405736  1.0000
  C   C25       1.0  0.34325401258871874  0.17926743547075588  0.5436845438346793  1.0000
  C   C26       1.0  0.1567459872195242  0.6792674350815308  0.9563154560674135  1.0000
  C   C27       1.0  0.6567459876764541  0.8207325648329329  0.45631545570663906  1.0000
  C   C28       1.0  0.8432540130653401  0.32073256468108846  0.04368454399499033  1.0000
  C   C29       1.0  0.41980129985943676  0.25004372255239776  0.5126285518724183  1.0000
  C   C30       1.0  0.08019869996849749  0.7500437227042421  0.9873714485507598  1.0000
  C   C31       1.0  0.5801987004254274  0.7499562772102214  0.48737144818998546  1.0000
  C   C32       1.0  0.9198012988714664  0.24995627705837706  0.012628551509088688  1.0000
  C   C33       1.0  0.35348928069688196  0.31221004316283507  0.5557503107721722  1.0000
  C   C34       1.0  0.1465107191113609  0.8122100433146794  0.9442496891299205  1.0000
  C   C35       1.0  0.6465107181430819  0.6877899565997841  0.44424968928767644  1.0000
  C   C36       1.0  0.8534892811735032  0.1877899569890093  0.05575031093248321  1.0000
  C   C37       1.0  0.3364759480699121  0.38724309633897375  0.5463551514680269  1.0000
  C   C38       1.0  0.16352405173833076  0.8872430964908181  0.9536448484340659  1.0000
  C   C39       1.0  0.663524052214952  0.6127569034236454  0.4536448485943769  1.0000
  C   C40       1.0  0.8364759485465334  0.11275690327180106  0.046355151628337886  1.0000
  C   C41       1.0  0.370181201336873  0.10082348643677659  0.6492059603627565  1.0000
  C   C42       1.0  0.1298187984910613  0.600823486588621  0.8507940400604217  1.0000
  C   C43       1.0  0.629818797503091  0.8991765133258426  0.35079403969709216  1.0000
  C   C44       1.0  0.8701812017938028  0.3991765137150678  0.149205960001982  1.0000
  C   C45       1.0  0.7541454123012625  0.35962525645294524  0.688735189669854  1.0000
  C   C46       1.0  0.7458545888386382  0.8596252560637201  0.8112648101644865  1.0000
  C   C47       1.0  0.24585458798360169  0.6403747438507436  0.3112648103925497  1.0000
  C   C48       1.0  0.25414541142653463  0.14037474369889916  0.1887351893768318  1.0000
  C   C49       1.0  0.770062022368462  0.2842766780362135  0.6909837270388856  1.0000
  C   C50       1.0  0.7299379773265384  0.7842766781880579  0.8090162727928999  1.0000
  C   C51       1.0  0.22993797791640214  0.7157233217264057  0.3090162730235183  1.0000
  C   C52       1.0  0.27006202295832576  0.21572332157456134  0.1909837272695039  1.0000
  C   C53       1.0  0.7218715272620246  0.24397680562213084  0.7516500108038863  1.0000
  C   C54       1.0  0.7781284724329759  0.7439768057739752  0.7483499890278992  1.0000
  C   C55       1.0  0.27812847302283955  0.7560231941404884  0.24834998925851756  1.0000
  C   C56       1.0  0.22187152640698812  0.256023193988644  0.25165001103194945  1.0000
  C   C57       1.0  0.6287076756023983  0.3669536288496286  0.8062643551948298  1.0000
  C   C58       1.0  0.8712923240926024  0.8669536290014731  0.6937356446369557  1.0000
  C   C59       1.0  0.37129232468246604  0.6330463709129905  0.19373564486757414  1.0000
  C   C60       1.0  0.12870767619226192  0.1330463707611462  0.3062643554254481  1.0000
  C   C61       1.0  0.6452418040971183  0.2915963630204378  0.8105650414551763  1.0000
  C   C62       1.0  0.8547581956175737  0.7915963631722821  0.6894349588976945  1.0000
  C   C63       1.0  0.354758196187746  0.7084036367421814  0.1894349586072275  1.0000
  C   C64       1.0  0.14524180466729048  0.20840363659033706  0.3105650411647093  1.0000
  C   C65       1.0  0.6866066704796345  0.40297276849414737  0.7452202150855337  1.0000
  C   C66       1.0  0.8133933292350575  0.9029727686459917  0.754779785267337  1.0000
  C   C67       1.0  0.3133933283603295  0.5970272312684719  0.2547797849743149  1.0000
  C   C68       1.0  0.1866066710498068  0.09702723165769701  0.24522021479506667  1.0000
  C   C69       1.0  0.7869367552215223  0.5064990920448941  0.6752149985175927  1.0000
  C   C70       1.0  0.7130632444734782  0.006499091893049742  0.8247850013141926  1.0000
  C   C71       1.0  0.21306324506334198  0.4935009082587946  0.3247850015448111  1.0000
  C   C72       1.0  0.2869367543664857  0.9935009078695696  0.1752149987456559  1.0000
  C   C73       1.0  0.7772798454819021  0.46321838856456593  0.6068502678893412  1.0000
  C   C74       1.0  0.7227201542130983  0.9632183887164104  0.8931497319424442  1.0000
  C   C75       1.0  0.22272015480296212  0.5367816117391228  0.39314973217306265  1.0000
  C   C76       1.0  0.27727984460717414  0.03678161158727841  0.10685026759631891  1.0000
  C   C77       1.0  0.7973997435641428  0.3842597844689088  0.6219428475948131  1.0000
  C   C78       1.0  0.7026002561505492  0.8842597846207532  0.8780571527580577  1.0000
  C   C79       1.0  0.20260025672072152  0.6157402158347799  0.3780571524675907  1.0000
  C   C80       1.0  0.29739974413431497  0.11574021568293558  0.1219428473043461  1.0000
  C   C81       1.0  0.8417150815909864  0.3218274215911619  0.5835440961841191  1.0000
  C   C82       1.0  0.6582849181237055  0.8218274217430063  0.9164559041687518  1.0000
  C   C83       1.0  0.15828491869387787  0.6781725781714574  0.4164559038782848  1.0000
  C   C84       1.0  0.34171508071625845  0.17817257801961295  0.08354409589109679  1.0000
  C   C85       1.0  0.6067745690533444  0.5230052482205837  0.7868214796586082  1.0000
  C   C86       1.0  0.8932254306416562  0.023005248609808814  0.7131785201731772  1.0000
  C   C87       1.0  0.3932254312315198  0.4769947515420356  0.21317852040379562  1.0000
  C   C88       1.0  0.10677456819830791  0.97699475169388  0.2868214798866714  1.0000
  C   C89       1.0  0.8382278142970045  0.12697442891810473  0.5117635706347531  1.0000
  C   C90       1.0  0.6617721854176872  0.6269744290699492  0.9882364297181176  1.0000
  C   C91       1.0  0.16177218454295936  0.8730255708445145  0.48823642942509554  1.0000
  C   C92       1.0  0.33822781486717696  0.37302557123373964  0.011763570344286071  1.0000
  C   C93       1.0  0.7669459217007706  0.05711901729638361  0.47348931832683305  1.0000
  C   C94       1.0  0.7330540776158146  0.557119017448228  0.02651068189332659  1.0000
  C   C95       1.0  0.23305407713919338  0.9428809824662355  0.5265106817330156  1.0000
  C   C96       1.0  0.2669459226690495  0.4428809823143912  0.973489318169077  1.0000
  N   N1        1.0  0.27862272892011475  0.4176244461713159  0.6075494720991795  1.0000
  N   N2        1.0  0.22137727088812814  0.9176244463231602  0.8924505278029133  1.0000
  N   N3        1.0  0.7213772713647494  0.5823755535913033  0.3924505279632242  1.0000
  N   N4        1.0  0.7786227293967362  0.08237555343945893  0.10754947225949055  1.0000
  N   N5        1.0  0.14948704630157045  0.2943357569564925  0.8296721642253629  1.0000
  N   N6        1.0  0.35051295350667244  0.7943357571083369  0.6703278356767297  1.0000
  N   N7        1.0  0.8505129525187022  0.7056642428061267  0.17032783531340018  1.0000
  N   N8        1.0  0.6494870467781917  0.2056642431953519  0.32967216438567404  1.0000
  N   N9        1.0  0.3555711263274831  0.17360996587744051  0.6207394152577623  1.0000
  N   N10       1.0  0.1444288734807598  0.6736099654882154  0.8792605846443303  1.0000
  N   N11       1.0  0.6444288725124809  0.8263900344262483  0.37926058480208624  1.0000
  N   N12       1.0  0.8555711268041045  0.32639003427440383  0.1207394154180734  1.0000
  N   N13       1.0  0.8258711163323047  0.26267745380303364  0.6257945391427446  1.0000
  N   N14       1.0  0.674128884807596  0.762677453954878  0.874205460691596  1.0000
  N   N15       1.0  0.1741288839328681  0.7373225459595856  0.3742054603985737  1.0000
  N   N16       1.0  0.3258711154772682  0.23732254580774126  0.12579453937080787  1.0000
  N   N17       1.0  0.5949528461459139  0.2539069384739603  0.8663666507557207  1.0000
  N   N18       1.0  0.9050471535490866  0.7539069386258047  0.6336333490760646  1.0000
  N   N19       1.0  0.4050471541389502  0.7460930612886589  0.1336333493066831  1.0000
  N   N20       1.0  0.09495284529087751  0.24609306113681453  0.3663666509837839  1.0000
  N   N21       1.0  0.6801745146367093  0.4742495102675126  0.7339840824622322  1.0000
  N   N22       1.0  0.8198254850582911  0.974249510419357  0.7660159173695532  1.0000
  N   N23       1.0  0.3198254856481548  0.5257504894951066  0.26601591760017157  1.0000
  N   N24       1.0  0.1801745137816729  0.025750489343262226  0.23398408269029544  1.0000
  O   O1        1.0  0.16062513883888976  0.4223695567391964  0.7629880466996036  1.0000
  O   O2        1.0  0.3393748624142534  0.9223695568910408  0.7370119532050443  1.0000
  O   O3        1.0  0.8393748614459744  0.5776304430234228  0.23701195336280018  1.0000
  O   O4        1.0  0.660625137870611  0.07763044341264794  0.26298804685735944  1.0000
  O   O5        1.0  0.7331536919464495  0.1774379819793131  0.760187131365367  1.0000
  O   O6        1.0  0.7668463091934512  0.6774379821311575  0.7398128684689737  1.0000
  O   O7        1.0  0.26684630831872336  0.8225620177833062  0.2398128681759514  1.0000
  O   O8        1.0  0.23315369109141298  0.3225620181725313  0.2601871315934302  1.0000
  O   O9        1.0  0.8901082326287988  0.1772141453000368  0.4721466397050282  1.0000
  O   O10       1.0  0.6098917666877866  0.6772141454518812  0.027853360515131428  1.0000
  O   O11       1.0  0.1098917676560655  0.8227858544625825  0.5278533603573755  1.0000
  O   O12       1.0  0.39010823359707764  0.32278585485180755  0.9721466395472724  1.0000
  O   O13       1.0  0.8334756227369101  0.12528170315716847  0.5771796539468981  1.0000
  O   O14       1.0  0.6665243769580904  0.6252817027679434  0.9228203458848873  1.0000
  O   O15       1.0  0.16652437754795413  0.8747182971465203  0.4228203461155057  1.0000
  O   O16       1.0  0.3334756233070824  0.3747182969946759  0.0771796536564311  1.0000
  F   F1        1.0  0.7088389014292235  0.0040469171448476535  0.5170499422702312  1.0000
  F   F2        1.0  0.7911610982657771  0.5040469167556225  0.9829500575615544  1.0000
  F   F3        1.0  0.29116109885564084  0.9959530831588411  0.48295005779217265  1.0000
  F   F4        1.0  0.20883890201908706  0.49595308300699675  0.017049942500849524  1.0000
  F   F5        1.0  0.6121441878593235  0.07237310177460776  0.4297296151785045  1.0000
  F   F6        1.0  0.8878558129021621  0.5723731019264522  0.07027038504421029  1.0000
  F   F7        1.0  0.3878558124255408  0.9276268979880115  0.5702703848838993  1.0000
  F   F8        1.0  0.11214418738270214  0.4276268978361671  0.9297296150181934  1.0000
  F   F9        1.0  0.9078078147023054  0.028482933782205247  0.4328452186272992  1.0000
  F   F10       1.0  0.5921921860394886  0.5284829339340497  0.06715478107433018  1.0000
  F   F11       1.0  0.0921921855825587  0.9715170665214835  0.5671547814351046  1.0000
  F   F12       1.0  0.4078078142256842  0.4715170663696392  0.9328452184669882  1.0000
  I   I1        1.0  0.2666036339937828  0.6062674950520693  0.6040207285116114  1.0000
  I   I2        1.0  0.2333963658144601  0.106267494900225  0.8959792713904813  1.0000
  I   I3        1.0  0.7333963648461812  0.3937325047105499  0.3959792715482372  1.0000
  I   I4        1.0  0.7666036344704041  0.8937325048623943  0.10402072867192241  1.0000
