data_image0
_chemical_formula_structural       H92C72N28O32
_chemical_formula_sum              "H92 C72 N28 O32"
_cell_length_a       3.663048715777587
_cell_length_b       37.76331419983902
_cell_length_c       14.801372674843941
_cell_angle_alpha    90.0
_cell_angle_beta     95.22693645003224
_cell_angle_gamma    90.0

_space_group_name_H-M_alt    "P 1"
_space_group_IT_number       1

loop_
  _space_group_symop_operation_xyz
  'x, y, z'

loop_
  _atom_site_type_symbol
  _atom_site_label
  _atom_site_symmetry_multiplicity
  _atom_site_fract_x
  _atom_site_fract_y
  _atom_site_fract_z
  _atom_site_occupancy
  H   H1        1.0  0.4419106491703819  0.16453448145784  0.44652756697515306  1.0000
  H   H2        1.0  0.4419106495597678  0.8354655185464228  0.9465275666043679  1.0000
  H   H3        1.0  0.941910650897593  0.6645344814599715  0.44652756708451846  1.0000
  H   H4        1.0  0.9419106512869788  0.3354655185442914  0.9465275667137332  1.0000
  H   H5        1.0  0.5831361437275647  0.1700146169910947  0.5619339116297095  1.0000
  H   H6        1.0  0.5831361433381789  0.8299853830131682  0.061933912000494744  1.0000
  H   H7        1.0  0.08313614200035373  0.6700146169932262  0.5619339115203441  1.0000
  H   H8        1.0  0.08313614435233296  0.3299853830110367  0.06193391195241053  1.0000
  H   H9        1.0  0.5496508521609166  0.20615392756055256  0.34165791359426834  1.0000
  H   H10       1.0  0.5496508498110665  0.7938460724437103  0.8416579138378626  1.0000
  H   H11       1.0  0.04965085043370577  0.706153927562684  0.3416579134849029  1.0000
  H   H12       1.0  0.04965085082522061  0.29384607244157884  0.8416579137897784  1.0000
  H   H13       1.0  0.8059551300172708  0.286086236838981  0.2546669014976507  1.0000
  H   H14       1.0  0.8059551304066567  0.7139137631652819  0.7546669011268655  1.0000
  H   H15       1.0  0.30595513103142485  0.7860862368411125  0.2546669014495665  1.0000
  H   H16       1.0  0.3059551314208107  0.21391376316315044  0.7546669010787813  1.0000
  H   H17       1.0  0.5817148813660022  0.24483704001910442  0.23808786850590724  1.0000
  H   H18       1.0  0.5817148817575171  0.7551629599851584  0.7380878688107828  1.0000
  H   H19       1.0  0.08171488238015627  0.7448370400212357  0.23808786845782304  1.0000
  H   H20       1.0  0.08171488277167109  0.255162959983027  0.7380878687626986  1.0000
  H   H21       1.0  0.9677740672047169  0.21971758056223173  0.6146269882396507  1.0000
  H   H22       1.0  0.9677740695545672  0.780282419442031  0.11462698799605628  1.0000
  H   H23       1.0  0.4677740682188711  0.7197175805643631  0.6146269881915665  1.0000
  H   H24       1.0  0.4677740678273562  0.2802824194398997  0.1146269878866909  1.0000
  H   H25       1.0  0.18289377516873917  0.28031210327522377  0.5734547826329558  1.0000
  H   H26       1.0  0.1828937775185894  0.7196878967290391  0.07345478238936136  1.0000
  H   H27       1.0  0.6828937768959502  0.7803121032773552  0.5734547827423211  1.0000
  H   H28       1.0  0.6828937765044353  0.21968789672690764  0.07345478243744558  1.0000
  H   H29       1.0  0.06181078765990408  0.30254396262838346  0.41384221128253285  1.0000
  H   H30       1.0  0.061810788049289925  0.6974560373758794  0.9138422109117477  1.0000
  H   H31       1.0  0.561810789387115  0.802543962630515  0.41384221139189825  1.0000
  H   H32       1.0  0.5618107897765009  0.19745603737374795  0.913842211021113  1.0000
  H   H33       1.0  0.6684587310310129  0.09946827813158444  0.46019471043244037  1.0000
  H   H34       1.0  0.6684587314225278  0.9005317218726784  0.9601947107373159  1.0000
  H   H35       1.0  0.168458732045167  0.5994682781337158  0.46019471038435605  1.0000
  H   H36       1.0  0.16845873243668186  0.400531721870547  0.9601947106892317  1.0000
  H   H37       1.0  0.5713181860848748  0.10305442868191346  0.5738111022174073  1.0000
  H   H38       1.0  0.5713181856933601  0.8969455713223494  0.07381110191253175  1.0000
  H   H39       1.0  0.07131818435766393  0.6030544286840448  0.573811102108042  1.0000
  H   H40       1.0  0.07131818396827809  0.39694557132021796  0.07381110247882719  1.0000
  H   H41       1.0  0.5224625184325081  0.05172098957374684  0.3739396820448553  1.0000
  H   H42       1.0  0.522462518821894  0.948279010430516  0.87393968167407  1.0000
  H   H43       1.0  0.022462519446662176  0.5517209895758782  0.3739396819967711  1.0000
  H   H44       1.0  0.02246251983604802  0.4482790104283846  0.8739396816259858  1.0000
  H   H45       1.0  0.2522091305550225  0.9660488196810731  0.31721044948258603  1.0000
  H   H46       1.0  0.25220913094440833  0.03395118032318958  0.8172104491118009  1.0000
  H   H47       1.0  0.7522091295408684  0.46604881967894185  0.31721044953067024  1.0000
  H   H48       1.0  0.7522091299302542  0.533951180325321  0.8172104491598848  1.0000
  H   H49       1.0  0.44269179858862007  0.007083579279732293  0.28385091208696156  1.0000
  H   H50       1.0  0.4426917989780059  0.9929164207245306  0.7838509117161762  1.0000
  H   H51       1.0  0.942691797574466  0.5070835792818637  0.28385091213504576  1.0000
  H   H52       1.0  0.9426917979638518  0.49291642072239916  0.7838509117642606  1.0000
  H   H53       1.0  0.2738741006851367  0.051967988021781354  0.6476547580292943  1.0000
  H   H54       1.0  0.2738741002957508  0.9480320119824815  0.14765475840007955  1.0000
  H   H55       1.0  0.7738740996709825  0.5519679880239128  0.6476547580773785  1.0000
  H   H56       1.0  0.7738740992815967  0.4480320119803501  0.14765475844816375  1.0000
  H   H57       1.0  0.07173978071421613  0.9888990198894988  0.626434401788092  1.0000
  H   H58       1.0  0.0717397803227013  0.011100980114764054  0.12643440148321652  1.0000
  H   H59       1.0  0.5717397797000621  0.4888990198873674  0.6264344018361763  1.0000
  H   H60       1.0  0.5717397793085472  0.5111009801168954  0.12643440153130073  1.0000
  H   H61       1.0  0.09874631254140868  0.9588585953654025  0.47736389267796864  1.0000
  H   H62       1.0  0.09874631293079451  0.0411414046388604  0.9773638923071835  1.0000
  H   H63       1.0  0.5987463115272547  0.458858595363271  0.4773638927260528  1.0000
  H   H64       1.0  0.5987463119166404  0.5411414046409918  0.9773638923552677  1.0000
  H   H65       1.0  0.019888964544427075  0.12712720114010714  0.3397230404103888  1.0000
  H   H66       1.0  0.01988896493381292  0.8728727988641557  0.8397230400396035  1.0000
  H   H67       1.0  0.519888963528144  0.6271272011422386  0.3397230397828122  1.0000
  H   H68       1.0  0.5198889639196588  0.37287279886202424  0.8397230400876877  1.0000
  H   H69       1.0  0.19806390961294826  0.18099386149823515  0.08381182994348843  1.0000
  H   H70       1.0  0.19806391000446308  0.8190061385060277  0.583811830248364  1.0000
  H   H71       1.0  0.6980639085987942  0.6809938615003666  0.08381182999157265  1.0000
  H   H72       1.0  0.698063908990309  0.3190061385038963  0.5838118302964482  1.0000
  H   H73       1.0  0.9893452252287032  0.1489423682528367  0.941840887323136  1.0000
  H   H74       1.0  0.9893452248371882  0.8510576317514261  0.4418408870182604  1.0000
  H   H75       1.0  0.4893452262428572  0.6489423682549681  0.9418408872750518  1.0000
  H   H76       1.0  0.4893452258513423  0.3510576317492948  0.4418408869701762  1.0000
  H   H77       1.0  0.7062459354437312  0.08919457074597437  0.9516249856675337  1.0000
  H   H78       1.0  0.7062459350543451  0.9108054292582886  0.451624986038319  1.0000
  H   H79       1.0  0.20624593645788517  0.5891945707481058  0.9516249856194494  1.0000
  H   H80       1.0  0.20624593606849934  0.41080542925615704  0.4516249859902348  1.0000
  H   H81       1.0  0.6311822196627715  0.06317230996664401  0.10316251829321156  1.0000
  H   H82       1.0  0.6311822200521573  0.9368276900376188  0.6031625179224264  1.0000
  H   H83       1.0  0.1311822206769257  0.5631723099687754  0.10316251824512734  1.0000
  H   H84       1.0  0.13118222106631156  0.43682769003548744  0.603162517874342  1.0000
  H   H85       1.0  0.9018105051492699  0.08877186923424984  0.7671159990067974  1.0000
  H   H86       1.0  0.901810504757755  0.911228130770013  0.2671159987019219  1.0000
  H   H87       1.0  0.4018105061634239  0.5887718692363813  0.7671159989587132  1.0000
  H   H88       1.0  0.4018105057740381  0.41122813076788156  0.2671159993294985  1.0000
  H   H89       1.0  0.26966188687161274  0.09796325530177566  0.820342803733625  1.0000
  H   H90       1.0  0.2696618864822269  0.9020367447024871  0.3203428041044102  1.0000
  H   H91       1.0  0.7696618885988237  0.597963255303907  0.8203428038429903  1.0000
  H   H92       1.0  0.7696618882094378  0.4020367447003558  0.3203428042137756  1.0000
  C   C1        1.0  0.740107021429658  0.2086118241188053  0.47979033262027193  1.0000
  C   C2        1.0  0.7401070218190439  0.7913881758854575  0.9797903322494868  1.0000
  C   C3        1.0  0.24010702244381207  0.7086118241209367  0.47979033257218767  1.0000
  C   C4        1.0  0.24010702283532692  0.29138817588332616  0.9797903328770633  1.0000
  C   C5        1.0  0.9218272152986218  0.2301872000428674  0.5463472690637976  1.0000
  C   C6        1.0  0.9218272176506009  0.7698127999613955  0.04634726949586401  1.0000
  C   C7        1.0  0.42182721631277587  0.7301872000449988  0.5463472690157134  1.0000
  C   C8        1.0  0.42182721592339006  0.269812799959264  0.04634726938649864  1.0000
  C   C9        1.0  0.039111831056780975  0.2635732914576239  0.5218379995351077  1.0000
  C   C10       1.0  0.039111830667395125  0.7364267082818317  0.02183799990589291  1.0000
  C   C11       1.0  0.5391118300426269  0.7635732914597554  0.5218379995831919  1.0000
  C   C12       1.0  0.539111829653241  0.2364267082797002  0.02183799995397713  1.0000
  C   C13       1.0  0.9769335728257017  0.2763126381011463  0.43353353497047736  1.0000
  C   C14       1.0  0.9769335704758515  0.7236873619031166  0.9335335352140718  1.0000
  C   C15       1.0  0.4769335710984908  0.7763126381032778  0.4335335348611119  1.0000
  C   C16       1.0  0.47693357149000565  0.2236873619009851  0.9335335351659875  1.0000
  C   C17       1.0  0.7945242380611012  0.25426683762944013  0.36789635211715516  1.0000
  C   C18       1.0  0.794524238450487  0.7457331623748227  0.8678963517463698  1.0000
  C   C19       1.0  0.29452423907525527  0.7542668376315715  0.36789635206907095  1.0000
  C   C20       1.0  0.2945242394646411  0.24573316237269124  0.8678963516982858  1.0000
  C   C21       1.0  0.41826142146390305  0.05654584099001307  0.5101997541831317  1.0000
  C   C22       1.0  0.41826142107451725  0.9434541590142497  0.010199754553916971  1.0000
  C   C23       1.0  0.9182614204497489  0.5565458409921444  0.510199754231216  1.0000
  C   C24       1.0  0.918261420060363  0.4434541590121184  0.010199754602001187  1.0000
  C   C25       1.0  0.2876356397914026  0.03837600037779994  0.5832704262542331  1.0000
  C   C26       1.0  0.2876356393998878  0.9616239996264629  0.08327042594935753  1.0000
  C   C27       1.0  0.7876356387772485  0.5383760003799314  0.5832704263023174  1.0000
  C   C28       1.0  0.7876356383857337  0.4616239996243314  0.08327042599744175  1.0000
  C   C29       1.0  0.17458636585216036  0.003357985195074339  0.5702264830078242  1.0000
  C   C30       1.0  0.17458636546277453  0.9966420148091886  0.07022648337860943  1.0000
  C   C31       1.0  0.6745863648380063  0.5033579851972058  0.5702264830559084  1.0000
  C   C32       1.0  0.6745863644486204  0.4966420148070571  0.07022648342669364  1.0000
  C   C33       1.0  0.1875412652896535  0.9860780815725846  0.48764713832364553  1.0000
  C   C34       1.0  0.18754126568116836  0.013921918431678362  0.9876471386285209  1.0000
  C   C35       1.0  0.6875412642754994  0.4860780815704531  0.48764713837172974  1.0000
  C   C36       1.0  0.6875412646670143  0.5139219184338097  0.9876471386766053  1.0000
  C   C37       1.0  0.31698338812556587  0.0047430159083008535  0.415067480230131  1.0000
  C   C38       1.0  0.31698338851708063  0.995256984095962  0.9150674805350066  1.0000
  C   C39       1.0  0.8169833871114117  0.5047430159104324  0.4150674802782152  1.0000
  C   C40       1.0  0.8169833875029265  0.4952569840938305  0.9150674805830908  1.0000
  C   C41       1.0  0.1892146318465265  0.16465581800091333  0.24982084773053786  1.0000
  C   C42       1.0  0.18921463223804136  0.8353441820033495  0.7498208480354135  1.0000
  C   C43       1.0  0.6892146335737375  0.6646558180030447  0.24982084783990327  1.0000
  C   C44       1.0  0.6892146339652524  0.33534418200121807  0.7498208481447788  1.0000
  C   C45       1.0  0.035662713736342506  0.1409042784709474  0.17342856414629287  1.0000
  C   C46       1.0  0.03566271412785734  0.8590957215333154  0.6734285644511684  1.0000
  C   C47       1.0  0.5356627127221885  0.6409042784730788  0.17342856419437708  1.0000
  C   C48       1.0  0.5356627131137033  0.359095721531184  0.6734285644992526  1.0000
  C   C49       1.0  0.06982760845414195  0.15511579674924217  0.08695501021173903  1.0000
  C   C50       1.0  0.0698276088435278  0.8448842032550207  0.5869550098409536  1.0000
  C   C51       1.0  0.569827607439988  0.6551157967513735  0.08695501025982325  1.0000
  C   C52       1.0  0.5698276078293738  0.34488420325288927  0.586955009889038  1.0000
  C   C53       1.0  0.953828975857556  0.13716949345569043  0.0075950204711031  1.0000
  C   C54       1.0  0.9538289762469419  0.8628305065485725  0.5075950201003179  1.0000
  C   C55       1.0  0.4538289768717101  0.6371694934578218  0.007595020423018884  1.0000
  C   C56       1.0  0.45382897451973087  0.36283050654644095  0.5075950199909525  1.0000
  C   C57       1.0  0.7963506589904782  0.1037512893933632  0.013127400300803749  1.0000
  C   C58       1.0  0.796350659379864  0.8962487106108997  0.5131273999300184  1.0000
  C   C59       1.0  0.29635065726326726  0.6037512893954946  0.013127400191438373  1.0000
  C   C60       1.0  0.2963506576526531  0.3962487106087682  0.5131273998206531  1.0000
  C   C61       1.0  0.7576596077704094  0.08908176179129798  0.09776913336748458  1.0000
  C   C62       1.0  0.7576596054184302  0.9109182382129649  0.5977691329354181  1.0000
  C   C63       1.0  0.25765960604319843  0.5890817617934294  0.0977691332581192  1.0000
  C   C64       1.0  0.25765960643258423  0.41091823821083345  0.5977691328873339  1.0000
  C   C65       1.0  0.8715249857107561  0.10672794312150657  0.1790330089040867  1.0000
  C   C66       1.0  0.8715249861022709  0.8932720568827562  0.6790330092089621  1.0000
  C   C67       1.0  0.37152498672491024  0.606727943123638  0.17903300885600246  1.0000
  C   C68       1.0  0.37152498437506004  0.3932720568806249  0.6790330090995969  1.0000
  C   C69       1.0  0.793075282374781  0.08610804504054524  0.26258898331389025  1.0000
  C   C70       1.0  0.7930752800228018  0.9138919549637176  0.7625889828818239  1.0000
  C   C71       1.0  0.29307528064757005  0.5861080450426767  0.26258898320452484  1.0000
  C   C72       1.0  0.2930752810390849  0.4138919549615862  0.7625889835094004  1.0000
  N   N1        1.0  0.6213400882505958  0.17554380965927666  0.4956287036354208  1.0000
  N   N2        1.0  0.6213400886399817  0.8244561903449862  0.9956287032646355  1.0000
  N   N3        1.0  0.1213400865233849  0.6755438096614081  0.4956287035260555  1.0000
  N   N4        1.0  0.12134008691277075  0.3244561903428548  0.9956287031552701  1.0000
  N   N5        1.0  0.6867162613391867  0.22131654085688343  0.3932389585567244  1.0000
  N   N6        1.0  0.6867162617285725  0.7786834591473794  0.8932389581859391  1.0000
  N   N7        1.0  0.18671626235334077  0.7213165408590149  0.39323895850864027  1.0000
  N   N8        1.0  0.18671626000136154  0.27868345914524795  0.8932389580765737  1.0000
  N   N9        1.0  0.7132048844428861  0.2628940091821263  0.280295479739071  1.0000
  N   N10       1.0  0.713204884832272  0.7371059908221365  0.7802954793682858  1.0000
  N   N11       1.0  0.21320488545704025  0.7628940091842576  0.2802954796909868  1.0000
  N   N12       1.0  0.2132048858485551  0.2371059908200051  0.7802954799958624  1.0000
  N   N13       1.0  0.5297172764844319  0.09056266253279693  0.512421502631056  1.0000
  N   N14       1.0  0.5297172760929171  0.9094373374714658  0.01242150232618055  1.0000
  N   N15       1.0  0.02971727749858599  0.5905626625349284  0.5124215025829719  1.0000
  N   N16       1.0  0.029717277107071154  0.4094373374693345  0.012421502278096332  1.0000
  N   N17       1.0  0.4275376854777585  0.03904967430020446  0.4295102197306041  1.0000
  N   N18       1.0  0.42753768586714436  0.9609503257040584  0.9295102193598189  1.0000
  N   N19       1.0  0.9275376844636044  0.5390496743023359  0.42951021977868836  1.0000
  N   N20       1.0  0.9275376848529903  0.46095032570192696  0.929510219407903  1.0000
  N   N21       1.0  0.3401639542235897  0.9915546355875624  0.33164214158873234  1.0000
  N   N22       1.0  0.34016395187161047  0.008445364416700468  0.8316421411566659  1.0000
  N   N23       1.0  0.8401639532073066  0.4915546355854309  0.33164214096115574  1.0000
  N   N24       1.0  0.8401639535988215  0.5084453644188319  0.8316421412660314  1.0000
  N   N25       1.0  0.5274155404104744  0.14724056767304874  0.7299930001177656  1.0000
  N   N26       1.0  0.5274155400210886  0.8527594323312141  0.22999300048855098  1.0000
  N   N27       1.0  0.027415541424628584  0.6472405676751802  0.7299930000696815  1.0000
  N   N28       1.0  0.027415541035242744  0.3527594323290827  0.22999300044046675  1.0000
  O   O1        1.0  0.1604116805266445  0.15558484112141424  0.3337010809281612  1.0000
  O   O2        1.0  0.16041167817679428  0.8444151588828486  0.8337010811717556  1.0000
  O   O3        1.0  0.6604116795124905  0.6555848411235456  0.3337010809762454  1.0000
  O   O4        1.0  0.6604116799040053  0.34441515888071716  0.833701081281121  1.0000
  O   O5        1.0  0.3476701165572302  0.1929535527904238  0.23233120567026444  1.0000
  O   O6        1.0  0.3476701169466161  0.807046447213839  0.7323312052994791  1.0000
  O   O7        1.0  0.8476701155430761  0.6929535527925552  0.23233120571834862  1.0000
  O   O8        1.0  0.8476701159324619  0.3070464472117076  0.7323312053475635  1.0000
  O   O9        1.0  0.8850924395932688  0.0990966711818941  0.34321170144312446  1.0000
  O   O10       1.0  0.8850924399847836  0.9009033288223687  0.8432117017480001  1.0000
  O   O11       1.0  0.38509244060742287  0.5990966711840255  0.34321170139504026  1.0000
  O   O12       1.0  0.3850924409989377  0.4009033288202373  0.8432117016999159  1.0000
  O   O13       1.0  0.633807717406862  0.0568180737168759  0.25461804899741886  1.0000
  O   O14       1.0  0.6338077177962479  0.9431819262873868  0.7546180486266335  1.0000
  O   O15       1.0  0.1338077184210162  0.5568180737190073  0.25461804894933465  1.0000
  O   O16       1.0  0.13380771881040202  0.44318192628525555  0.7546180485785494  1.0000
  O   O17       1.0  0.4781568543984164  0.17602047968629658  0.6863171862512097  1.0000
  O   O18       1.0  0.4781568540090305  0.8239795203179663  0.18631718662199503  1.0000
  O   O19       1.0  0.9781568561256274  0.676020479688428  0.6863171863605753  1.0000
  O   O20       1.0  0.9781568557362416  0.3239795203158348  0.1863171867313604  1.0000
  O   O21       1.0  0.6596160209303337  0.12060384678894032  0.6911049156879117  1.0000
  O   O22       1.0  0.6596160205388188  0.8793961532153225  0.1911049153830361  1.0000
  O   O23       1.0  0.15961601920312277  0.6206038467910717  0.6911049155785463  1.0000
  O   O24       1.0  0.15961601881160795  0.3793961532131911  0.19110491527367074  1.0000
  O   O25       1.0  0.447291346353993  0.1449105245646932  0.8107941126801029  1.0000
  O   O26       1.0  0.44729134596247816  0.8550894754395697  0.31079411237522736  1.0000
  O   O27       1.0  0.9472913453377099  0.6449105245668246  0.8107941120525263  1.0000
  O   O28       1.0  0.947291344948324  0.3550894754374382  0.3107941124233116  1.0000
  O   O29       1.0  0.0966562201964099  0.07815763294453064  0.8090529888347509  1.0000
  O   O30       1.0  0.09665621980702407  0.9218423670597322  0.30905298920553603  1.0000
  O   O31       1.0  0.5966562191822558  0.578157632946662  0.8090529888828351  1.0000
  O   O32       1.0  0.5966562187928699  0.42184236705760075  0.3090529892536203  1.0000
