data_image0
_chemical_formula_structural       H44C48N8O8Br4
_chemical_formula_sum              "H44 C48 N8 O8 Br4"
_cell_length_a       18.467548623847694
_cell_length_b       5.137277855967162
_cell_length_c       12.273370486880355
_cell_angle_alpha    90.0
_cell_angle_beta     96.88285402106112
_cell_angle_gamma    90.0

_space_group_name_H-M_alt    "P 1"
_space_group_IT_number       1

loop_
  _space_group_symop_operation_xyz
  'x, y, z'

loop_
  _atom_site_type_symbol
  _atom_site_label
  _atom_site_symmetry_multiplicity
  _atom_site_fract_x
  _atom_site_fract_y
  _atom_site_fract_z
  _atom_site_occupancy
  H   H1        1.0  0.23160540948408936  0.6160720129871501  0.5833187887746547  1.0000
  H   H2        1.0  0.7683945902499172  0.1160720125946428  0.9166812109363904  1.0000
  H   H3        1.0  0.7683945903264937  0.38392798779786447  0.4166812104659562  1.0000
  H   H4        1.0  0.23160540962670714  0.8839279881903718  0.08331878912490631  1.0000
  H   H5        1.0  0.24524576356917574  0.8451199471247273  0.47930523847395884  1.0000
  H   H6        1.0  0.7547542364500665  0.3451199486787761  0.020694761937589557  1.0000
  H   H7        1.0  0.7547542363074486  0.15488005171373118  0.5206947615873379  1.0000
  H   H8        1.0  0.2452457634265579  0.6548800521062385  0.9793052381237072  1.0000
  H   H9        1.0  0.33424144565673547  0.19697423195138702  0.5139251502876248  1.0000
  H   H10       1.0  0.665758554077271  0.6969742303973382  0.9860748494234205  1.0000
  H   H11       1.0  0.6657585542198888  0.8030257688336275  0.48607484977367205  1.0000
  H   H12       1.0  0.334241445733312  0.3030257684411203  0.013925149817190422  1.0000
  H   H13       1.0  0.4232324780520127  0.41929206875544334  0.6523768319272445  1.0000
  H   H14       1.0  0.5767675222894433  0.9192920672013943  0.8476231686034587  1.0000
  H   H15       1.0  0.5767675223660197  0.5807079320295713  0.3476231681330244  1.0000
  H   H16       1.0  0.4232324781285892  0.08070793163706391  0.15237683145681016  1.0000
  H   H17       1.0  0.36852539588613753  0.8591083106150393  0.8922214620539864  1.0000
  H   H18       1.0  0.6314746039139103  0.35910831022253203  0.6077785384777445  1.0000
  H   H19       1.0  0.6314746039904868  0.14089169016997521  0.10777853800731027  1.0000
  H   H20       1.0  0.36852539596271405  0.6408916905624825  0.39222146158355214  1.0000
  H   H21       1.0  0.27030581444757995  0.6148880143461315  0.7803532973538202  1.0000
  H   H22       1.0  0.7296941852864266  0.1148880139536242  0.7196467023572248  1.0000
  H   H23       1.0  0.7296941854290444  0.38511198643888306  0.21964670270747658  1.0000
  H   H24       1.0  0.27030581459019776  0.8851119868313903  0.2803532977040718  1.0000
  H   H25       1.0  0.16551229215074503  0.2867383177043823  0.9698326520202752  1.0000
  H   H26       1.0  0.8344877076493028  0.7867383180968895  0.5301673485114556  1.0000
  H   H27       1.0  0.8344877077258793  0.7132616811340761  0.030167348041021405  1.0000
  H   H28       1.0  0.16551229222732156  0.213261682688125  0.469832651549841  1.0000
  H   H29       1.0  0.08289220957370792  0.9689970563336062  0.039970637106159064  1.0000
  H   H30       1.0  0.9171077904455343  0.4689970559410989  0.46002936330538935  1.0000
  H   H31       1.0  0.9171077903029163  0.031002942504852138  0.9600293629551376  1.0000
  H   H32       1.0  0.0828922094310901  0.5310029428973594  0.5399706367559074  1.0000
  H   H33       1.0  0.019232228304458823  0.6353022440102297  0.9139952078456435  1.0000
  H   H34       1.0  0.9807677714295477  0.13530224361772247  0.5860047918654018  1.0000
  H   H35       1.0  0.9807677715721654  0.3646977567747848  0.08600479221565334  1.0000
  H   H36       1.0  0.01923222844707663  0.864697757167292  0.413995208195895  1.0000
  H   H37       1.0  0.039710942923821366  0.6255302419096058  0.7179472499568806  1.0000
  H   H38       1.0  0.9602890573515932  0.12553024151709852  0.7820527497531365  1.0000
  H   H39       1.0  0.9602890574942111  0.37446975887540873  0.28205275010338826  1.0000
  H   H40       1.0  0.03971094306643917  0.874469759267916  0.21794725030713225  1.0000
  H   H41       1.0  0.12255234286262227  0.953705782977863  0.6467513883863667  1.0000
  H   H42       1.0  0.8774476574127925  0.453705784531912  0.8532486113236505  1.0000
  H   H43       1.0  0.8774476570140021  0.046294215860595296  0.35324861167493005  1.0000
  H   H44       1.0  0.1225523430052401  0.5462942162531026  0.14675138873661833  1.0000
  C   C1        1.0  0.30578964564690414  0.9038669350162712  0.6288513355892532  1.0000
  C   C2        1.0  0.6942103541531436  0.4038669346237639  0.8711486649424778  1.0000
  C   C3        1.0  0.6942103542297201  0.09613306576874334  0.3711486644720435  1.0000
  C   C4        1.0  0.30578964572348066  0.5961330661612506  0.12885133511881897  1.0000
  C   C5        1.0  0.34406771202870245  0.12642804578802047  0.5981015414558662  1.0000
  C   C6        1.0  0.6559322882467121  0.6264280461805277  0.9018984582541509  1.0000
  C   C7        1.0  0.6559322883893299  0.8735719530504379  0.4018984586044026  1.0000
  C   C8        1.0  0.3440677116299121  0.37357195265793064  0.09810154180714584  1.0000
  C   C9        1.0  0.3927594466295611  0.24994264589145235  0.6749499451384062  1.0000
  C   C10       1.0  0.6072405537118949  0.7499426443374034  0.8250500553922967  1.0000
  C   C11       1.0  0.6072405537884713  0.7500573548935622  0.32505005492186245  1.0000
  C   C12       1.0  0.3927594461647295  0.2500573545010549  0.17494994466900002  1.0000
  C   C13       1.0  0.40314694904145654  0.1518319997221863  0.7825310122305166  1.0000
  C   C14       1.0  0.59685305069255  0.6518320001146936  0.7174689874805287  1.0000
  C   C15       1.0  0.5968530507691265  0.8481680010628282  0.21746898701009426  1.0000
  C   C16       1.0  0.40314694918407434  0.348168000670321  0.2825310125807682  1.0000
  C   C17       1.0  0.36331728243663014  0.9382370985445896  0.8091585415836648  1.0000
  C   C18       1.0  0.6366827178387845  0.4382370981520823  0.6908414581263523  1.0000
  C   C19       1.0  0.6366827174399943  0.061762900293868814  0.1908414584776319  1.0000
  C   C20       1.0  0.363317282579248  0.5617629006863761  0.3091585419339165  1.0000
  C   C21       1.0  0.13767765990406042  0.14434717583723  0.914104246116157  1.0000
  C   C22       1.0  0.8623223404373955  0.6443471742831811  0.5858957544145461  1.0000
  C   C23       1.0  0.8623223399725638  0.8556528249477845  0.0858957539451397  1.0000
  C   C24       1.0  0.13767765998063697  0.35565282455527725  0.4141042456457228  1.0000
  C   C25       1.0  0.09082547753081693  0.9634705536222486  0.9535716341535923  1.0000
  C   C26       1.0  0.9091745222031896  0.46347055322974134  0.5464283655574528  1.0000
  C   C27       1.0  0.9091745223458073  0.03652944716276595  0.046428365907704515  1.0000
  C   C28       1.0  0.09082547767343475  0.5365294475552732  0.45357163450384386  1.0000
  C   C29       1.0  0.055611636624106224  0.7772773834613325  0.8831328958554907  1.0000
  C   C30       1.0  0.9443883631759418  0.27727738501538146  0.6168671046762404  1.0000
  C   C31       1.0  0.9443883632525182  0.22272261537712584  0.11686710420580607  1.0000
  C   C32       1.0  0.05561163670068274  0.7227226157696331  0.38313289538505635  1.0000
  C   C33       1.0  0.06695478879033996  0.7720963302369904  0.7724908972114942  1.0000
  C   C34       1.0  0.9330452114850747  0.27209633179103926  0.7275091024985231  1.0000
  C   C35       1.0  0.9330452110862844  0.22790366860146796  0.22750910284980264  1.0000
  C   C36       1.0  0.06695478886691647  0.7279036689939752  0.2724908967410598  1.0000
  C   C37       1.0  0.1129436516386697  0.9543164312799315  0.7326925399197342  1.0000
  C   C38       1.0  0.8870563480953368  0.4543164308874242  0.7673074597913109  1.0000
  C   C39       1.0  0.8870563482379545  0.04568356950508307  0.2673074601415626  1.0000
  C   C40       1.0  0.11294365178128753  0.5456835698975904  0.23269254026998584  1.0000
  C   C41       1.0  0.14864822156628119  0.1413082356752012  0.8033156233399922  1.0000
  C   C42       1.0  0.8513517787751747  0.6413082360677085  0.6966843771907109  1.0000
  C   C43       1.0  0.8513517788517513  0.8586917651098134  0.19668437672027664  1.0000
  C   C44       1.0  0.14864822110144962  0.35869176471730607  0.30331562287058583  1.0000
  C   C45       1.0  0.1956298768535994  0.3355231093832854  0.7556759860522777  1.0000
  C   C46       1.0  0.8043701234218152  0.8355231097757926  0.7443240136577394  1.0000
  C   C47       1.0  0.8043701230230249  0.6644768914017292  0.24432401400901904  1.0000
  C   C48       1.0  0.1956298769962172  0.1644768910092219  0.25567598640252936  1.0000
  N   N1        1.0  0.3154496000425031  0.8171367673103397  0.7343145090443471  1.0000
  N   N2        1.0  0.6845504002329115  0.31713676691783244  0.7656854906656702  1.0000
  N   N3        1.0  0.6845503998341212  0.18286323152811862  0.2656854910169497  1.0000
  N   N4        1.0  0.3154496001851209  0.6828632319206259  0.23431450939459872  1.0000
  N   N5        1.0  0.2594587589903252  0.7712970100298441  0.5557261314709239  1.0000
  N   N6        1.0  0.7405412407436813  0.2712970096373368  0.9442738682401212  1.0000
  N   N7        1.0  0.740541240820258  0.2287029907551705  0.44427386776968697  1.0000
  N   N8        1.0  0.25945875913294303  0.7287029892011215  0.05572613182117554  1.0000
  O   O1        1.0  0.23913112655217572  0.47824534293901044  0.8257262808163952  1.0000
  O   O2        1.0  0.7608688731818307  0.9782453433315177  0.6742737188946499  1.0000
  O   O3        1.0  0.7608688733244486  0.521754657846004  0.17427371924490162  1.0000
  O   O4        1.0  0.23913112669479356  0.021754657453496785  0.3257262811666468  1.0000
  O   O5        1.0  0.19283272860038744  0.35891085934904626  0.6545898833126799  1.0000
  O   O6        1.0  0.807167271133619  0.8589108597415535  0.845410116398365  1.0000
  O   O7        1.0  0.8071672712762369  0.6410891414359683  0.34541011674861677  1.0000
  O   O8        1.0  0.19283272874300528  0.141089141043461  0.15458988366293164  1.0000
  Br  Br1       1.0  0.47288643088815396  0.30693895565108387  0.8893477599423611  1.0000
  Br  Br2       1.0  0.5271135688458525  0.8069389560435911  0.610652239768684  1.0000
  Br  Br3       1.0  0.5271135689884703  0.6930610451339306  0.11065224011893565  1.0000
  Br  Br4       1.0  0.4728864309647305  0.19306104474142338  0.3893477594719268  1.0000
