data_image0
_chemical_formula_structural       H22C18N4O8
_chemical_formula_sum              "H22 C18 N4 O8"
_cell_length_a       5.966478098981203
_cell_length_b       8.053284008917071
_cell_length_c       10.243466329485434
_cell_angle_alpha    86.66783069352307
_cell_angle_beta     86.11984315013359
_cell_angle_gamma    77.4680831538646

_space_group_name_H-M_alt    "P 1"
_space_group_IT_number       1

loop_
  _space_group_symop_operation_xyz
  'x, y, z'

loop_
  _atom_site_type_symbol
  _atom_site_label
  _atom_site_symmetry_multiplicity
  _atom_site_fract_x
  _atom_site_fract_y
  _atom_site_fract_z
  _atom_site_occupancy
  H   H1        1.0  0.8137017844493278  0.3076572254072118  0.613037621163641  1.0000
  H   H2        1.0  0.18629821519042963  0.6923427742609645  0.3869623780629288  1.0000
  H   H3        1.0  0.4593107161482579  0.21479358180835195  0.7389069462312545  1.0000
  H   H4        1.0  0.5406892835127142  0.7852064178540314  0.2610930539708997  1.0000
  H   H5        1.0  0.7410382975810282  0.6328295317131791  0.5888797601166013  1.0000
  H   H6        1.0  0.25896170375790756  0.36717046795538244  0.41112024000779857  1.0000
  H   H7        1.0  0.30443927550135713  0.755624643352047  0.7075658378034559  1.0000
  H   H8        1.0  0.6955607241596151  0.24437535631033633  0.29243416239869824  1.0000
  H   H9        1.0  0.04825734252292353  0.3701119612549457  0.7973791893879841  1.0000
  H   H10       1.0  0.9517426567621531  0.629888039680712  0.20262081077529762  1.0000
  H   H11       1.0  0.9776864666265369  0.5966838847681175  0.7792442689799614  1.0000
  H   H12       1.0  0.022313534336503033  0.4033161161737185  0.22075573110556612  1.0000
  H   H13       1.0  0.17012987731657514  0.6190087929549118  0.983498076190159  1.0000
  H   H14       1.0  0.8298701219685013  0.380991207980746  0.01650192397312279  1.0000
  H   H15       1.0  0.24626324294045718  0.39251563455906013  0.00289199793273158  1.0000
  H   H16       1.0  0.753736756720515  0.6074843651033234  0.9971080022694225  1.0000
  H   H17       1.0  0.598310992528798  0.13901492373869  0.058879130815315914  1.0000
  H   H18       1.0  0.40168900713217426  0.8609850759236934  0.9411208693868384  1.0000
  H   H19       1.0  0.03137346357639424  0.0780403070389889  0.7944543860114761  1.0000
  H   H20       1.0  0.9686265377625414  0.9219596926295727  0.20554561411292374  1.0000
  H   H21       1.0  0.3542200095127924  0.06358063918991437  0.38030027886361467  1.0000
  H   H22       1.0  0.6457799901481799  0.936419360472469  0.6196997213385397  1.0000
  C   C1        1.0  0.4806660908978477  0.34369138462335497  0.7155905400276577  1.0000
  C   C2        1.0  0.5193339104410881  0.6563086150452065  0.2844094600967422  1.0000
  C   C3        1.0  0.6173309214338182  0.5663299330170909  0.6383579192029349  1.0000
  C   C4        1.0  0.38266907822715396  0.4336700666452927  0.3616420809992193  1.0000
  C   C5        1.0  0.4039798170620894  0.6265616457840042  0.6971110243124742  1.0000
  C   C6        1.0  0.5960201825988828  0.37343835387837937  0.30288897588968  1.0000
  C   C7        1.0  0.10215223507151673  0.48720124885426247  0.8177082638348232  1.0000
  C   C8        1.0  0.8978477642135599  0.5127987520813954  0.1822917363284588  1.0000
  C   C9        1.0  0.11701042312094403  0.5003483655813606  0.9645667110021885  1.0000
  C   C10       1.0  0.8829895761641323  0.49965163535429724  0.03543328916109336  1.0000
  C   C11       1.0  0.7751983500481249  0.9936399343776152  0.890056852656345  1.0000
  C   C12       1.0  0.2248016496128474  0.006360065284768151  0.1099431475458092  1.0000
  C   C13       1.0  0.5889749134528186  0.038750809395076156  0.9936840900229204  1.0000
  C   C14       1.0  0.4110250858322579  0.9612491915405817  0.006315910140361527  1.0000
  C   C15       1.0  0.200828143152668  0.09885153233725429  0.5806123849881498  1.0000
  C   C16       1.0  0.7991718565083041  0.9011484673251291  0.41938761521400436  1.0000
  C   C17       1.0  0.39341404183070666  0.037070092664517065  0.4830237384777079  1.0000
  C   C18       1.0  0.6065859595082288  0.9629299070040446  0.516976261646692  1.0000
  N   N1        1.0  0.32197712318351823  0.4849777425912776  0.7442887272121418  1.0000
  N   N2        1.0  0.678022876477454  0.5150222570711058  0.2557112729900124  1.0000
  N   N3        1.0  0.6602968367092217  0.39112036789786764  0.651166698783274  1.0000
  N   N4        1.0  0.33970316460849936  0.6088796317764869  0.3488333003655414  1.0000
  O   O1        1.0  0.8021254761698811  0.8646909903568327  0.8260790060924257  1.0000
  O   O2        1.0  0.19787452349109114  0.1353090093055506  0.17392099410972858  1.0000
  O   O3        1.0  0.9031630747140945  0.11010570259934359  0.8722526544826604  1.0000
  O   O4        1.0  0.09683692457098196  0.8898942983363142  0.12774734568062152  1.0000
  O   O5        1.0  0.21972419742465144  0.03958601162793806  0.699100090462499  1.0000
  O   O6        1.0  0.780275802215106  0.9604139880402384  0.3008999087640708  1.0000
  O   O7        1.0  0.03521903134009577  0.21226627336046888  0.5382788858179285  1.0000
  O   O8        1.0  0.9647809683208765  0.7877337263019145  0.4617211143842259  1.0000
