data_image0
_chemical_formula_structural       H24C40N12O8F8
_chemical_formula_sum              "H24 C40 N12 O8 F8"
_cell_length_a       5.635692636642554
_cell_length_b       7.9161380196994795
_cell_length_c       20.988841121813184
_cell_angle_alpha    90.0
_cell_angle_beta     94.89789013294134
_cell_angle_gamma    90.0

_space_group_name_H-M_alt    "P 1"
_space_group_IT_number       1

loop_
  _space_group_symop_operation_xyz
  'x, y, z'

loop_
  _atom_site_type_symbol
  _atom_site_label
  _atom_site_symmetry_multiplicity
  _atom_site_fract_x
  _atom_site_fract_y
  _atom_site_fract_z
  _atom_site_occupancy
  H   H1        1.0  0.05444810237709656  0.3295830837597052  0.8976890849182467  1.0000
  H   H2        1.0  0.4455518975876149  0.8295830837786866  0.6023109148522523  1.0000
  H   H3        1.0  0.9455518967288715  0.670416916278258  0.10231091510514663  1.0000
  H   H4        1.0  0.5544481032992606  0.17041691625927638  0.3976890852116264  1.0000
  H   H5        1.0  0.30388456303769296  0.39130757223932233  0.039766606944233764  1.0000
  H   H6        1.0  0.19611543829555791  0.8913075722583038  0.4602333928697117  1.0000
  H   H7        1.0  0.6961154378491826  0.6086924277986407  0.9602333931196448  1.0000
  H   H8        1.0  0.8038845625913177  0.10869242777965919  0.5397666071941669  1.0000
  H   H9        1.0  0.10608392711507174  0.2684360776317883  0.15934828954847347  1.0000
  H   H10       1.0  0.3939160724372718  0.7684360776507698  0.3406517102249868  1.0000
  H   H11       1.0  0.8939160719908964  0.7315639211429326  0.8406517104749199  1.0000
  H   H12       1.0  0.6060839284496038  0.23156392238719326  0.6593482898388918  1.0000
  H   H13       1.0  0.20755079887897965  0.28491171507967494  0.2775402962667646  1.0000
  H   H14       1.0  0.292449200674645  0.7849117138354141  0.22245970398316858  1.0000
  H   H15       1.0  0.7924492002269885  0.7150882849582881  0.7224597037566288  1.0000
  H   H16       1.0  0.7075508002122305  0.21508828493930662  0.7775402960807101  1.0000
  H   H17       1.0  0.5619254902743619  0.43725903103081637  0.32287185784484745  1.0000
  H   H18       1.0  0.9380745097524891  0.9372590310497979  0.17712814199545263  1.0000
  H   H19       1.0  0.4380745106125136  0.5627409690071467  0.6771281422190311  1.0000
  H   H20       1.0  0.061925489353479135  0.06274096898816514  0.8228718580279408  1.0000
  H   H21       1.0  0.8378482183814446  0.5819501628869892  0.2533193057882286  1.0000
  H   H22       1.0  0.6621517816454064  0.08195016286800766  0.24668069405207144  1.0000
  H   H23       1.0  0.16215178250543097  0.4180498371509738  0.74668069427565  1.0000
  H   H24       1.0  0.3378482174605617  0.9180498371699554  0.753319305971322  1.0000
  C   C1        1.0  0.900875788320261  0.21528898634143556  0.9685637651404599  1.0000
  C   C2        1.0  0.5991242121189578  0.715288986360417  0.531436234696879  1.0000
  C   C3        1.0  0.0991242125666144  0.7847110136965275  0.031436234923418745  1.0000
  C   C4        1.0  0.4008757887679177  0.284711013677546  0.4685637653669996  1.0000
  C   C5        1.0  0.6930923402333333  0.10752134536839623  0.983471541031569  1.0000
  C   C6        1.0  0.8069076584262594  0.6075213453873777  0.5165284592417575  1.0000
  C   C7        1.0  0.3069076588726347  0.8924786546695669  0.016528458991824393  1.0000
  C   C8        1.0  0.19309234067970876  0.3924786546505853  0.4834715407816359  1.0000
  C   C9        1.0  0.6476019063520282  0.0749005813850766  0.047013325375210906  1.0000
  C   C10       1.0  0.8523980936748228  0.5749005814040581  0.4529866744650893  1.0000
  C   C11       1.0  0.3523980945348474  0.9250994186528865  0.9529866746886677  1.0000
  C   C12       1.0  0.14760190542986407  0.4250994186339049  0.5470133250818313  1.0000
  C   C13       1.0  0.4619137510976873  0.9716006177330376  0.06316318692304643  1.0000
  C   C14       1.0  0.03808624845593733  0.47160061771405615  0.43683681332688673  1.0000
  C   C15       1.0  0.5380862480082808  0.028399382304925325  0.9368368131003472  1.0000
  C   C16       1.0  0.9619137506500308  0.5283993823239068  0.5631631866965068  1.0000
  C   C17       1.0  0.4174675459731788  0.4178861171657014  0.1410277223880462  1.0000
  C   C18       1.0  0.08253245357916461  0.9178861171846829  0.3589722773854141  1.0000
  C   C19       1.0  0.582532453131508  0.5821138828722617  0.8589722771588744  1.0000
  C   C20       1.0  0.9174675455268034  0.08211388285328013  0.6410277226379792  1.0000
  C   C21       1.0  0.2624472722554645  0.33601061570437074  0.1796672512044618  1.0000
  C   C22       1.0  0.23755272907778632  0.8360106157233522  0.32033274860948363  1.0000
  C   C23       1.0  0.7375527286314111  0.6639893843335923  0.8203327488594168  1.0000
  C   C24       1.0  0.7624472718090891  0.1639893843146108  0.679667251454395  1.0000
  C   C25       1.0  0.3212788494251646  0.346306065303302  0.24505536384484927  1.0000
  C   C26       1.0  0.17872115012717887  0.8463060653222836  0.25494463592861105  1.0000
  C   C27       1.0  0.6787211514617109  0.653693934734661  0.7549446362190293  1.0000
  C   C28       1.0  0.8212788489775079  0.15369393471567946  0.7450553636183095  1.0000
  C   C29       1.0  0.5261248954247036  0.43420696575102014  0.2711594563336653  1.0000
  C   C30       1.0  0.9738751046021473  0.9342069657700015  0.22884054350663485  1.0000
  C   C31       1.0  0.4738751054621719  0.5657930342869429  0.7288405437302133  1.0000
  C   C32       1.0  0.026124894503820786  0.0657930342679614  0.7711594565167585  1.0000
  C   C33       1.0  0.680207309864011  0.5151954601916892  0.23302922840435583  1.0000
  C   C34       1.0  0.819792690164121  0.015195461435949869  0.26697077191241714  1.0000
  C   C35       1.0  0.3197926910228645  0.48480453858303163  0.7669707716595228  1.0000
  C   C36       1.0  0.180207308941847  0.9848045386020131  0.7330292281109763  1.0000
  C   C37       1.0  0.6224386732213106  0.5063461362125375  0.16666681104090986  1.0000
  C   C38       1.0  0.8775613268055403  0.006346136193556052  0.3333331887993902  1.0000
  C   C39       1.0  0.37756132588465746  0.4936538638254255  0.8333331889824835  1.0000
  C   C40       1.0  0.12243867408133528  0.993653863844407  0.6666668112644885  1.0000
  N   N1        1.0  0.7317901763614841  0.570273165875319  0.1155770389572098  1.0000
  N   N2        1.0  0.7682098236653668  0.07027316585633742  0.38442296088309036  1.0000
  N   N3        1.0  0.2682098245253914  0.42972683416264407  0.8844229611066687  1.0000
  N   N4        1.0  0.23179017544060135  0.9297268341816255  0.6155770391403032  1.0000
  N   N5        1.0  0.609078142361405  0.5269071028852964  0.06216585748651261  1.0000
  N   N6        1.0  0.8909218576654458  0.026907102866314873  0.4378341423537875  1.0000
  N   N7        1.0  0.39092185674456315  0.47309289715266667  0.9378341425368807  1.0000
  N   N8        1.0  0.1090781432214296  0.9730928971716482  0.5621658577100912  1.0000
  N   N9        1.0  0.42161339852674723  0.43591936641486234  0.07647204810764228  1.0000
  N   N10       1.0  0.07838660102687744  0.9359193664338438  0.4235279521422909  1.0000
  N   N11       1.0  0.578386600579221  0.5640806336231007  0.9235279519157512  1.0000
  N   N12       1.0  0.9216133980790907  0.06408063360411918  0.5764720478811025  1.0000
  O   O1        1.0  0.9006258533465324  0.2556536249069631  0.9078232732886163  1.0000
  O   O2        1.0  0.5993741470926865  0.7556536249259446  0.5921767265487224  1.0000
  O   O3        1.0  0.0993741475403431  0.744346375131  0.09217672677526227  1.0000
  O   O4        1.0  0.40062585201328155  0.24434637511201845  0.4078232734746709  1.0000
  O   O5        1.0  0.05456363269947766  0.25675030992917913  0.011234811285361735  1.0000
  O   O6        1.0  0.4454363686350545  0.7567503099481606  0.48876518900505667  1.0000
  O   O7        1.0  0.945436368187398  0.7432496901087838  0.9887651887785169  1.0000
  O   O8        1.0  0.554563632251821  0.24324969008980235  0.511234811058822  1.0000
  F   F1        1.0  0.7821508165386183  0.14443984139167487  0.09651018260203398  1.0000
  F   F2        1.0  0.717849183489514  0.6444398414106564  0.40348981771473896  1.0000
  F   F3        1.0  0.21784918256734992  0.8555601586462882  0.9034898174213594  1.0000
  F   F4        1.0  0.28215081739736153  0.3555601586273066  0.5965101823491396  1.0000
  F   F5        1.0  0.4375127057090035  0.9543984075566706  0.12616119395358133  1.0000
  F   F6        1.0  0.06248729384462117  0.45439840753768923  0.37383880629635186  1.0000
  F   F7        1.0  0.5624872933969646  0.04560159121805006  0.873838806069812  1.0000
  F   F8        1.0  0.9375127052613469  0.5456015912370317  0.6261611937270416  1.0000
