data_image0
_chemical_formula_structural       H48C24S12I4
_chemical_formula_sum              "H48 C24 S12 I4"
_cell_length_a       5.243201107128031
_cell_length_b       14.505535855143362
_cell_length_c       13.810163883731631
_cell_angle_alpha    90.0
_cell_angle_beta     98.60857086668102
_cell_angle_gamma    90.0

_space_group_name_H-M_alt    "P 1"
_space_group_IT_number       1

loop_
  _space_group_symop_operation_xyz
  'x, y, z'

loop_
  _atom_site_type_symbol
  _atom_site_label
  _atom_site_symmetry_multiplicity
  _atom_site_fract_x
  _atom_site_fract_y
  _atom_site_fract_z
  _atom_site_occupancy
  H   H1        1.0  0.8048691656651552  0.5599928276430929  0.2479094008100763  1.0000
  H   H2        1.0  0.6951308331360949  0.059992827475686475  0.2520905990943929  1.0000
  H   H3        1.0  0.19513083457514346  0.44000717269171985  0.752090599008776  1.0000
  H   H4        1.0  0.30486916519583745  0.9400071721697343  0.7479094007215434  1.0000
  H   H5        1.0  0.009457595288125788  0.6337404734165986  0.1907855579385032  1.0000
  H   H6        1.0  0.4905424057862067  0.13374047324919225  0.309214441972381  1.0000
  H   H7        1.0  0.9905424049521728  0.36625952691821406  0.8092144418803491  1.0000
  H   H8        1.0  0.5094575944540919  0.8662595263962284  0.6907855578464712  1.0000
  H   H9        1.0  0.6034402896791239  0.49753833447255796  0.08632852493997355  1.0000
  H   H10       1.0  0.8965597110304925  0.9975383346399642  0.4136714749674118  1.0000
  H   H11       1.0  0.3965597105611747  0.5024616651728628  0.9136714748788788  1.0000
  H   H12       1.0  0.10344028920980616  0.0024616656948484093  0.5863285248514405  1.0000
  H   H13       1.0  0.821122211991829  0.5591851711651112  0.02449196972544471  1.0000
  H   H14       1.0  0.678877786809421  0.059185170997704935  0.4755080301790245  1.0000
  H   H15       1.0  0.1788777882484696  0.44081482916970144  0.9755080300934075  1.0000
  H   H16       1.0  0.3211222134308776  0.9408148286477158  0.5244919696398278  1.0000
  H   H17       1.0  0.5405655514696482  0.8100899634006568  0.043926737822138844  1.0000
  H   H18       1.0  0.9594344492399682  0.31008996323325033  0.45607326208524646  1.0000
  H   H19       1.0  0.4594344487706505  0.189910036934156  0.9560732619967135  1.0000
  H   H20       1.0  0.04056555100033042  0.6899100364121704  0.5439267377336058  1.0000
  H   H21       1.0  0.8073281159693837  0.7672038324633138  0.12513398765296127  1.0000
  H   H22       1.0  0.6926718847402329  0.2672038322959075  0.374866012254424  1.0000
  H   H23       1.0  0.1926718842709151  0.23279616718210688  0.8748660121658911  1.0000
  H   H24       1.0  0.3073281155000658  0.7327961673495132  0.6251339875644283  1.0000
  H   H25       1.0  0.9425222708528952  0.8088656749512436  0.9675127729543181  1.0000
  H   H26       1.0  0.557477730742873  0.3088656747838372  0.5324872275077676  1.0000
  H   H27       1.0  0.057477729668540437  0.19113432469417713  0.03248722759688341  1.0000
  H   H28       1.0  0.4425222694974257  0.6911343248615835  0.4675127723110846  1.0000
  H   H29       1.0  0.9788358228681207  0.6882123156077874  0.9884289510214052  1.0000
  H   H30       1.0  0.5211641765381442  0.18821231544038106  0.5115710487054153  1.0000
  H   H31       1.0  0.021164177372177986  0.3117876847270253  0.01157104879744716  1.0000
  H   H32       1.0  0.4788358237021545  0.8117876848944316  0.48842895111343704  1.0000
  H   H33       1.0  3.664895085780402e-05  0.7673843456154062  0.7833378362782887  1.0000
  H   H34       1.0  0.49996335110126006  0.2673843454479998  0.7166621641843799  1.0000
  H   H35       1.0  0.9999633515705777  0.23261565471940654  0.2166621642729128  1.0000
  H   H36       1.0  0.5000366472306722  0.7326156548868129  0.2833378356315564  1.0000
  H   H37       1.0  0.7699087200950706  0.7012385382780103  0.7052954194198668  1.0000
  H   H38       1.0  0.7300912795923311  0.201238538110604  0.7947045810393029  1.0000
  H   H39       1.0  0.23009128014522795  0.2987614613674104  0.29470458039898545  1.0000
  H   H40       1.0  0.26990872092910456  0.7987614615348168  0.20529541951189875  1.0000
  H   H41       1.0  0.8376290274195958  0.3917524272628009  0.253861719482397  1.0000
  H   H42       1.0  0.6623709713816543  0.8917524274302072  0.24613828042207223  1.0000
  H   H43       1.0  0.16237097091233654  0.6082475730720119  0.7461382803335392  1.0000
  H   H44       1.0  0.33762902885864426  0.10824757290460549  0.75386171939678  1.0000
  H   H45       1.0  0.8278125592401993  0.3716769572554833  0.12670249466973174  1.0000
  H   H46       1.0  0.6721874395610508  0.8716769567334977  0.3732975052347375  1.0000
  H   H47       1.0  0.17218744100009944  0.6283230430793294  0.8732975051491205  1.0000
  H   H48       1.0  0.32781256067924786  0.12832304291192304  0.6267024945841149  1.0000
  C   C1        1.0  0.9048952823928558  0.5678540174080725  0.18389688255378242  1.0000
  C   C2        1.0  0.5951047183167608  0.06785401724066624  0.31610311735360286  1.0000
  C   C3        1.0  0.09510471784744293  0.43214598292674006  0.8161031172650699  1.0000
  C   C4        1.0  0.4048952819235379  0.9321459824047545  0.6838968824652494  1.0000
  C   C5        1.0  0.7184610144573192  0.5610229509111485  0.08831920589861436  1.0000
  C   C6        1.0  0.7815389862522973  0.06102295074374221  0.41168079400877094  1.0000
  C   C7        1.0  0.2815389860641164  0.4389770494236641  0.9116807946525872  1.0000
  C   C8        1.0  0.2184610139880014  0.9389770489016785  0.5883192058100815  1.0000
  C   C9        1.0  0.6779491052755419  0.7523466598533419  0.05650600848292897  1.0000
  C   C10       1.0  0.8220508954340746  0.25234666037532766  0.44349399142445634  1.0000
  C   C11       1.0  0.32205089496475686  0.2476533397920787  0.9434939913359234  1.0000
  C   C12       1.0  0.177949104806224  0.747653339959485  0.556506008394396  1.0000
  C   C13       1.0  0.8367141485690816  0.7440185345633572  0.9734287198916525  1.0000
  C   C14       1.0  0.6632858508371834  0.24401853439595092  0.526571279835168  1.0000
  C   C15       1.0  0.16328585167121717  0.2559814657714554  0.026571279927199924  1.0000
  C   C16       1.0  0.33671414940311534  0.7559814652494697  0.47342871998368424  1.0000
  C   C17       1.0  0.8768463103749781  0.7057902384467835  0.7800163649968254  1.0000
  C   C18       1.0  0.6231536912207901  0.20579023827937706  0.7199836354652603  1.0000
  C   C19       1.0  0.12315368986532066  0.29420976119863734  0.21998363482202696  1.0000
  C   C20       1.0  0.3768463093006455  0.7942097613660437  0.2800163650859412  1.0000
  C   C21       1.0  0.9579125287932376  0.37959435245872764  0.19629690730280303  1.0000
  C   C22       1.0  0.5420874719163787  0.879594352626134  0.3037030926045822  1.0000
  C   C23       1.0  0.042087471447061015  0.6204056471866931  0.8037030925160492  1.0000
  C   C24       1.0  0.45791252832391977  0.12040564770867876  0.6962969072142701  1.0000
  S   S1        1.0  0.15559118047817191  0.4811096259863767  0.18775883999151663  1.0000
  S   S2        1.0  0.3444088186877942  0.9811096254643912  0.31224115991645146  1.0000
  S   S3        1.0  0.8444088197621267  0.518890374348436  0.8122411598273357  1.0000
  S   S4        1.0  0.6555911796441382  0.018890374181029648  0.6877588398994847  1.0000
  S   S5        1.0  0.4802583250385259  0.6521338945672827  0.07323995843399471  1.0000
  S   S6        1.0  0.019741676035806555  0.1521338950892683  0.42676004147688945  1.0000
  S   S7        1.0  0.5197416752017726  0.34786610507813803  0.9267600413848575  1.0000
  S   S8        1.0  0.9802583242044922  0.8478661052455444  0.5732399583419628  1.0000
  S   S9        1.0  0.632053391958965  0.7221925790687355  0.857925358294492  1.0000
  S   S10       1.0  0.8679466074472997  0.2221925789013291  0.6420746414323283  1.0000
  S   S11       1.0  0.3679466082813335  0.2778074212660772  0.14207464152436022  1.0000
  S   S12       1.0  0.13205339279299902  0.7778074207440916  0.35792535838652395  1.0000
  I   I1        1.0  0.395083148124803  0.4938179576082407  0.39820821727054684  1.0000
  I   I2        1.0  0.10491685104116316  0.993817957086255  0.10179178263742124  1.0000
  I   I3        1.0  0.6049168521154956  0.506182042726572  0.6017917825483053  1.0000
  I   I4        1.0  0.8950831472907691  0.00618204255916568  0.898208217178515  1.0000
