data_image0
_chemical_formula_structural       H64C32S16I4
_chemical_formula_sum              "H64 C32 S16 I4"
_cell_length_a       9.403252775187516
_cell_length_b       8.496613114330689
_cell_length_c       16.428087767338724
_cell_angle_alpha    90.0
_cell_angle_beta     103.01620421413917
_cell_angle_gamma    90.0

_space_group_name_H-M_alt    "P 1"
_space_group_IT_number       1

loop_
  _space_group_symop_operation_xyz
  'x, y, z'

loop_
  _atom_site_type_symbol
  _atom_site_label
  _atom_site_symmetry_multiplicity
  _atom_site_fract_x
  _atom_site_fract_y
  _atom_site_fract_z
  _atom_site_occupancy
  H   H1        1.0  0.4413600763711909  0.6921670365431574  0.8321374228197481  1.0000
  H   H2        1.0  0.05863992374148912  0.19216703738647511  0.1678625772149793  1.0000
  H   H3        1.0  0.5586399234683493  0.3078329629471468  0.16786257717278583  1.0000
  H   H4        1.0  0.9413600760980512  0.8078329632807686  0.8321374227775546  1.0000
  H   H5        1.0  0.42089631941348515  0.8602228478159626  0.7660665059574081  1.0000
  H   H6        1.0  0.07910368069919495  0.36022284748234074  0.2339334940773194  1.0000
  H   H7        1.0  0.5791036804260553  0.1397771528512811  0.2339334940351259  1.0000
  H   H8        1.0  0.9208963191403454  0.6397771520079634  0.7660665059152146  1.0000
  H   H9        1.0  0.7044832647265034  0.6801231163807337  0.8417981817709244  1.0000
  H   H10       1.0  0.7955167348398973  0.18012311604711195  0.1582018181794162  1.0000
  H   H11       1.0  0.29551673511303705  0.31987688310957035  0.15820181822160967  1.0000
  H   H12       1.0  0.20448326499964303  0.8198768834431922  0.8417981818131177  1.0000
  H   H13       1.0  0.7035671193910223  0.8618489628119128  0.7882315000799482  1.0000
  H   H14       1.0  0.7964328801753784  0.36184896247829096  0.2117684998703924  1.0000
  H   H15       1.0  0.2964328804485181  0.13815103785533092  0.21176849991258587  1.0000
  H   H16       1.0  0.2035671196641619  0.6381510370120131  0.7882315001221416  1.0000
  H   H17       1.0  0.5903049918282218  0.9150966055975922  0.6375258889271452  1.0000
  H   H18       1.0  0.9096950077381788  0.41509660644090995  0.3624741110231953  1.0000
  H   H19       1.0  0.4096950080113186  0.0849033938927119  0.3624741110653888  1.0000
  H   H20       1.0  0.0903049921013615  0.5849033942263338  0.6375258889693386  1.0000
  H   H21       1.0  0.7685358959005311  0.8332556660793314  0.6458934642972304  1.0000
  H   H22       1.0  0.7314641036658696  0.33325566574570953  0.35410653565311023  1.0000
  H   H23       1.0  0.23146410393900937  0.16674433341097275  0.3541065356953037  1.0000
  H   H24       1.0  0.2685358961736707  0.6667443337445946  0.6458934643394239  1.0000
  H   H25       1.0  0.48838150197500446  0.7337925896007018  0.519165656772722  1.0000
  H   H26       1.0  0.011618498137675699  0.23379258926708  0.48083434326200564  1.0000
  H   H27       1.0  0.511618497864536  0.26620740988960234  0.48083434321981217  1.0000
  H   H28       1.0  0.9883815017018648  0.7662074102232241  0.5191656567305284  1.0000
  H   H29       1.0  0.6647037999106288  0.6499426048581494  0.5261373484826743  1.0000
  H   H30       1.0  0.8352962007204421  0.14994260452452746  0.47386265147077067  1.0000
  H   H31       1.0  0.33529620099358176  0.35005739463215485  0.4738626515129642  1.0000
  H   H32       1.0  0.16470379911909833  0.8500573949657766  0.5261373485217633  1.0000
  H   H33       1.0  0.7614662924628809  0.8898175141396402  0.3567075161145142  1.0000
  H   H34       1.0  0.7385337071035197  0.3898175149829579  0.6432924838358264  1.0000
  H   H35       1.0  0.23853370737665955  0.11018248535066393  0.64329248387802  1.0000
  H   H36       1.0  0.26146629273602057  0.6101824856842858  0.35670751615670765  1.0000
  H   H37       1.0  0.791669647990459  0.7134991494169678  0.4164865590282571  1.0000
  H   H38       1.0  0.7083303515759416  0.21349914908334594  0.5835134409220833  1.0000
  H   H39       1.0  0.2083303518490813  0.28650085007333637  0.5835134409642769  1.0000
  H   H40       1.0  0.29166964826359876  0.7865008504069582  0.4164865590704506  1.0000
  H   H41       1.0  0.48906411731547555  0.805447485711381  0.3101961026345595  1.0000
  H   H42       1.0  0.010935882797204546  0.3054474853777592  0.689803897400168  1.0000
  H   H43       1.0  0.5109358825240649  0.1945525137789231  0.6898038973579745  1.0000
  H   H44       1.0  0.989064118107006  0.6945525141125449  0.3101961025954705  1.0000
  H   H45       1.0  0.5406606022285951  0.6220749737428007  0.35883144200453276  1.0000
  H   H46       1.0  0.9593393984024756  0.12207497340917894  0.6411685579489124  1.0000
  H   H47       1.0  0.45933939761094517  0.3779250269244429  0.6411685579880012  1.0000
  H   H48       1.0  0.040660601437064625  0.8779250260811252  0.3588314420436217  1.0000
  H   H49       1.0  0.6955958311592007  0.916362354650219  0.2213343566227016  1.0000
  H   H50       1.0  0.8044041684072  0.4163623543165971  0.7786656433276389  1.0000
  H   H51       1.0  0.30440416868033976  0.08363764601702471  0.7786656433698325  1.0000
  H   H52       1.0  0.19559583143234033  0.5836376463506465  0.22133435666489504  1.0000
  H   H53       1.0  0.6961199821516267  0.8021857731175409  0.13116014800117726  1.0000
  H   H54       1.0  0.803880018479444  0.302185772783919  0.8688398519522678  1.0000
  H   H55       1.0  0.30388001875258386  0.19781422754970282  0.8688398519944613  1.0000
  H   H56       1.0  0.19611998136009628  0.6978142278833246  0.13116014804026624  1.0000
  H   H57       1.0  0.5905906283716424  0.11008346824953441  0.8176030497486342  1.0000
  H   H58       1.0  0.9094093722594284  0.6100834685831562  0.18239695020481084  1.0000
  H   H59       1.0  0.40940937146789785  0.8899165324177093  0.18239695024389985  1.0000
  H   H60       1.0  0.09059062864478222  0.38991653208408744  0.8176030497908277  1.0000
  H   H61       1.0  0.5708680524185311  0.1953819631024557  0.9129541594436283  1.0000
  H   H62       1.0  0.9291319482125396  0.6953819634360776  0.08704584050981667  1.0000
  H   H63       1.0  0.42913194742100913  0.804618037564788  0.08704584054890566  1.0000
  H   H64       1.0  0.0708680526916709  0.30461803723116615  0.9129541594858218  1.0000
  C   C1        1.0  0.49609540574082794  0.7989883602620375  0.8173103649121639  1.0000
  C   C2        1.0  0.0039045943718521055  0.2989883599284156  0.18268963512256353  1.0000
  C   C3        1.0  0.5039045940987124  0.2010116392282667  0.18268963508037006  1.0000
  C   C4        1.0  0.9960954054676882  0.7010116395618885  0.8173103648699704  1.0000
  C   C5        1.0  0.6386778005263773  0.7567332269319751  0.7939173055800448  1.0000
  C   C6        1.0  0.8613221990400232  0.2567332265983532  0.20608269437029567  1.0000
  C   C7        1.0  0.36132219931316295  0.24326677373526867  0.20608269441248916  1.0000
  C   C8        1.0  0.1386778007995171  0.7432667740688905  0.7939173056222383  1.0000
  C   C9        1.0  0.6507019621945572  0.8085404581283169  0.6279041616631544  1.0000
  C   C10       1.0  0.8492980384365136  0.308540457794695  0.3720958382902907  1.0000
  C   C11       1.0  0.3492980376449832  0.19145954253892683  0.3720958383293797  1.0000
  C   C12       1.0  0.1507019614030267  0.6914595428725486  0.6279041617022432  1.0000
  C   C13       1.0  0.6062880935175525  0.7572740224157956  0.5369795485470943  1.0000
  C   C14       1.0  0.8937119071135182  0.25727402208217365  0.4630204514063507  1.0000
  C   C15       1.0  0.3937119063219877  0.24272597707450863  0.4630204514454397  1.0000
  C   C16       1.0  0.10628809272602215  0.7427259774081304  0.5369795485861834  1.0000
  C   C17       1.0  0.7088920959580169  0.8013971541808144  0.3891662021757026  1.0000
  C   C18       1.0  0.7911079036083836  0.3013971538471925  0.6108337977746379  1.0000
  C   C19       1.0  0.2911079038815234  0.19860284648642934  0.6108337978168314  1.0000
  C   C20       1.0  0.20889209623115673  0.6986028468200511  0.3891662022178961  1.0000
  C   C21       1.0  0.5811102841673064  0.7234954089685234  0.3293222886162657  1.0000
  C   C22       1.0  0.9188897153990944  0.22349540863490144  0.6706777113340748  1.0000
  C   C23       1.0  0.418889715672234  0.27650459052178084  0.6706777113762683  1.0000
  C   C24       1.0  0.08111028444044605  0.7765045908554026  0.32932228865845914  1.0000
  C   C25       1.0  0.63408917047415  0.8274871416872612  0.17879849568410966  1.0000
  C   C26       1.0  0.8659108290922505  0.3274871413536393  0.8212015042662308  1.0000
  C   C27       1.0  0.36591082936539027  0.1725128589799825  0.8212015043084243  1.0000
  C   C28       1.0  0.13408917074728982  0.6725128581366648  0.17879849572630313  1.0000
  C   C29       1.0  0.5190172927159158  0.1160456509826234  0.8620937450438939  1.0000
  C   C30       1.0  0.9809827079151551  0.6160456501393057  0.1379062549095511  1.0000
  C   C31       1.0  0.48098270712362456  0.8839543496846203  0.1379062549486401  1.0000
  C   C32       1.0  0.019017292989055523  0.3839543493509984  0.8620937450860874  1.0000
  S   S1        1.0  0.51926369452066  0.9227451543929223  0.9099434222830903  1.0000
  S   S2        1.0  0.9807363061104107  0.4227451540593005  0.09005657767035471  1.0000
  S   S3        1.0  0.4807363053188803  0.07725484627432135  0.0900565777094437  1.0000
  S   S4        1.0  0.019263694793799708  0.5772548454310037  0.9099434223252837  1.0000
  S   S5        1.0  0.6062751072034234  0.6530211833044107  0.6944539196418041  1.0000
  S   S6        1.0  0.8937248923629771  0.15302118297078882  0.3055460803085363  1.0000
  S   S7        1.0  0.3937248926361169  0.3469788161858935  0.30554608035072983  1.0000
  S   S8        1.0  0.10627510747656323  0.8469788165195153  0.6944539196839977  1.0000
  S   S9        1.0  0.6554706827644712  0.9121992428874461  0.4718635215657309  1.0000
  S   S10       1.0  0.8445293168019294  0.41219924255382434  0.5281364783846098  1.0000
  S   S11       1.0  0.3445293170750692  0.08780075777979754  0.5281364784268031  1.0000
  S   S12       1.0  0.1554706830376109  0.5878007569364798  0.4718635216079244  1.0000
  S   S13       1.0  0.6298303192955724  0.6451757913696442  0.23629426395396208  1.0000
  S   S14       1.0  0.8701696802708282  0.14517579103602246  0.7637057359963784  1.0000
  S   S15       1.0  0.3701696805439678  0.3548242092975994  0.7637057360385718  1.0000
  S   S16       1.0  0.12983031956871222  0.8548242084542818  0.23629426399615558  1.0000
  I   I1        1.0  0.15206616871528952  0.03174100154626666  0.022692984840227824  1.0000
  I   I2        1.0  0.3479338311568417  0.5317410018798886  0.9773070145697413  1.0000
  I   I3        1.0  0.8479338311242509  0.9682589979440374  0.9773070151523062  1.0000
  I   I4        1.0  0.6520661686826987  0.4682589976104156  0.022692985422792685  1.0000
