data_image0
_chemical_formula_structural       H82C60N6O12
_chemical_formula_sum              "H82 C60 N6 O12"
_cell_length_a       8.994413679349645
_cell_length_b       11.877488304999204
_cell_length_c       14.462585800679454
_cell_angle_alpha    66.3557799333359
_cell_angle_beta     92.14103865234308
_cell_angle_gamma    87.12964630690568

_space_group_name_H-M_alt    "P 1"
_space_group_IT_number       1

loop_
  _space_group_symop_operation_xyz
  'x, y, z'

loop_
  _atom_site_type_symbol
  _atom_site_label
  _atom_site_symmetry_multiplicity
  _atom_site_fract_x
  _atom_site_fract_y
  _atom_site_fract_z
  _atom_site_occupancy
  H   H1        1.0  0.6185053560136078  0.8172402950424156  0.5505406598409546  1.0000
  H   H2        1.0  0.38149464370880715  0.18275970564771224  0.44945934053833614  1.0000
  H   H3        1.0  0.4305111807688121  0.9292121128031317  0.4229437345769603  1.0000
  H   H4        1.0  0.5694888190129666  0.07078788696229192  0.5770562654194331  1.0000
  H   H5        1.0  0.36043558111275004  0.7895077907464333  0.4283990925338456  1.0000
  H   H6        1.0  0.639564418685948  0.21049220902229118  0.5716009081532059  1.0000
  H   H7        1.0  0.1374852661718328  0.5082783099842789  0.9637405908795185  1.0000
  H   H8        1.0  0.8625147347226042  0.49172168977861824  0.03625940913287416  1.0000
  H   H9        1.0  0.007067966766578349  0.6348964733719809  0.7441923624136546  1.0000
  H   H10       1.0  0.9929320341278586  0.3651035263909163  0.25580763759873804  1.0000
  H   H11       1.0  0.06577202535547695  0.7104884091743477  0.8224217492647534  1.0000
  H   H12       1.0  0.9342279743500186  0.28951159151247924  0.17757825042387926  1.0000
  H   H13       1.0  0.9091494193450247  0.6177402799137841  0.8531206914078161  1.0000
  H   H14       1.0  0.0908505815494122  0.3822597198491132  0.14687930860457643  1.0000
  H   H15       1.0  0.0394234831037854  0.40546739398722614  0.8081875827190717  1.0000
  H   H16       1.0  0.9605765166779933  0.5945326057781974  0.19181241727732176  1.0000
  H   H17       1.0  0.9625440482389103  0.3744160109867126  0.9271620872622319  1.0000
  H   H18       1.0  0.03745595154286843  0.625583988778711  0.07283791273416151  1.0000
  H   H19       1.0  0.14648934812720457  0.31633111015318477  0.9230537193159053  1.0000
  H   H20       1.0  0.8535106516545741  0.6836688896122388  0.07694628068048809  1.0000
  H   H21       1.0  0.7513568515848658  0.4260075271614615  0.8418670268934398  1.0000
  H   H22       1.0  0.24864314923328812  0.5739924735228389  0.15813297281119204  1.0000
  H   H23       1.0  0.754402337271158  0.25733618761830823  0.014601389271874737  1.0000
  H   H24       1.0  0.24559766243433753  0.7426638130685187  0.9853986104167578  1.0000
  H   H25       1.0  0.5272564830152233  0.22415641186730997  0.10920607439088327  1.0000
  H   H26       1.0  0.47274351676655524  0.7758435878981136  0.8907939256055103  1.0000
  H   H27       1.0  0.29509928332182284  0.35728529363921296  0.033686332766724156  1.0000
  H   H28       1.0  0.7049007164599558  0.6427147061262106  0.9663136672296693  1.0000
  H   H29       1.0  0.5754519565952224  0.7454964555600703  0.7369718953110739  1.0000
  H   H30       1.0  0.42454804429921444  0.2545035442028269  0.26302810470131865  1.0000
  H   H31       1.0  0.38999519195326  0.7079256974771085  0.7715149571156567  1.0000
  H   H32       1.0  0.6100048078285186  0.29207430228831516  0.2284850428807367  1.0000
  H   H33       1.0  0.3126297151375324  0.7391055861372623  0.5969496286134893  1.0000
  H   H34       1.0  0.6873702857569045  0.2608944136256348  0.40305037139890326  1.0000
  H   H35       1.0  0.3935362152915469  0.8737362574272322  0.596057530751802  1.0000
  H   H36       1.0  0.6064637844139487  0.1262637432595949  0.40394246893683056  1.0000
  H   H37       1.0  0.6659943409100162  0.6369972308581914  0.5147262716896024  1.0000
  H   H38       1.0  0.3340056588717625  0.3630027689072322  0.48527372830679094  1.0000
  H   H39       1.0  0.48023621626215773  0.5945875278792863  0.5457235861642908  1.0000
  H   H40       1.0  0.5197637834433378  0.4054124728075408  0.45427641352434184  1.0000
  H   H41       1.0  0.6604075940454267  0.4730956060250086  0.6859536953286411  1.0000
  H   H42       1.0  0.33959240573635197  0.526904393740415  0.3140463046677523  1.0000
  H   H43       1.0  0.734884748394159  0.6082528961121968  0.6882074297485196  1.0000
  H   H44       1.0  0.26511525131133656  0.39174710457463  0.31179256994011295  1.0000
  H   H45       1.0  0.6756807248197586  0.9927816644698437  0.34366605741415207  1.0000
  H   H46       1.0  0.32431927497893936  0.0072183352988807285  0.6563339432728993  1.0000
  H   H47       1.0  0.8409265543159785  0.8120598464134463  0.15961304321881523  1.0000
  H   H48       1.0  0.15907344546580013  0.1879401533519773  0.8403869567775782  1.0000
  H   H49       1.0  0.6521127170952845  0.657349842854917  0.22208151729279493  1.0000
  H   H50       1.0  0.3478872826864942  0.3426501569105066  0.7779184827035985  1.0000
  H   H51       1.0  0.47951597286164505  0.6673071139302248  0.3496243641461194  1.0000
  H   H52       1.0  0.5204840279565088  0.3326928867540757  0.6503756355585124  1.0000
  H   H53       1.0  0.18668419952341306  0.10194505889474148  0.19733944573779663  1.0000
  H   H54       1.0  0.8133158012947407  0.898054941789559  0.8026605539668351  1.0000
  H   H55       1.0  0.040669820466541426  0.17210256779221567  0.10165192622069201  1.0000
  H   H56       1.0  0.9593301803516123  0.8278974328920847  0.8983480734839399  1.0000
  H   H57       1.0  0.2805758319824478  0.12892657101399507  0.03092434927344408  1.0000
  H   H58       1.0  0.7194241677993308  0.8710734287514286  0.9690756507229493  1.0000
  H   H59       1.0  0.12957856179018423  0.051485744500928556  0.0069651302183864  1.0000
  H   H60       1.0  0.8704214379915944  0.9485142552644951  0.993034869778007  1.0000
  H   H61       1.0  0.38094501583157137  0.9386188184477517  0.17375517430601128  1.0000
  H   H62       1.0  0.6190549850035019  0.06138118223984969  0.8262448260892785  1.0000
  H   H63       1.0  0.3555863285239841  0.9063771376572973  0.06540308093017293  1.0000
  H   H64       1.0  0.6444136711815115  0.09362286302952971  0.9345969187584596  1.0000
  H   H65       1.0  0.2586965811372187  0.7437286033860665  0.22238313068700458  1.0000
  H   H66       1.0  0.74130341864456  0.25627139637935703  0.777616869309389  1.0000
  H   H67       1.0  0.11803633154673689  0.8132869323997521  0.1235654627601084  1.0000
  H   H68       1.0  0.8819636682350418  0.18671306736567153  0.876434537236285  1.0000
  H   H69       1.0  0.023336164913307107  0.799455679931701  0.28738818779146486  1.0000
  H   H70       1.0  0.9766638359048467  0.20054432075259937  0.7126118119131668  1.0000
  H   H71       1.0  0.1755305398809744  0.8775089568723885  0.30687374939776113  1.0000
  H   H72       1.0  0.8244694599008043  0.12249104289303503  0.6931262505986323  1.0000
  H   H73       1.0  0.01947715568633605  0.7538560493661608  0.5237560433214271  1.0000
  H   H74       1.0  0.9805228452081008  0.24614395039673645  0.47624395669096553  1.0000
  H   H75       1.0  0.9615381002840465  0.544318158369106  0.5838875956390783  1.0000
  H   H76       1.0  0.03846189942144885  0.45568184231772096  0.41611240404955435  1.0000
  H   H77       1.0  0.9000894452809823  0.6215709219151443  0.4569688243259484  1.0000
  H   H78       1.0  0.09991055442451328  0.3784290787716827  0.5430311753626842  1.0000
  H   H79       1.0  0.07990867388832176  0.9033904035454137  0.5976915996107587  1.0000
  H   H80       1.0  0.9200913258934569  0.09660959622000984  0.40230840038563476  1.0000
  H   H81       1.0  0.9502974270345325  0.02573824655969869  0.5909196120150415  1.0000
  H   H82       1.0  0.04970257274724612  0.9742617532057248  0.40908038798135193  1.0000
  C   C1        1.0  0.4623120306916891  0.8343710321605055  0.43304758880998157  1.0000
  C   C2        1.0  0.5376879702027478  0.16562896760239182  0.5669524112024108  1.0000
  C   C3        1.0  0.8729466759871891  0.01456199669842784  0.2066535087990256  1.0000
  C   C4        1.0  0.12705332490724777  0.9854380030644693  0.7933464912133669  1.0000
  C   C5        1.0  0.12235093081459858  0.5137405430952482  0.8859210777157086  1.0000
  C   C6        1.0  0.8776490689671801  0.48625945667017545  0.11407892228068478  1.0000
  C   C7        1.0  0.020194604529200764  0.6264117812355711  0.8226652922580194  1.0000
  C   C8        1.0  0.9798053951762948  0.37358821945125587  0.17733470743061308  1.0000
  C   C9        1.0  0.06482318799519163  0.39511472792165875  0.8862696079960934  1.0000
  C   C10       1.0  0.935176811710304  0.6048852727651682  0.11373039169253914  1.0000
  C   C11       1.0  0.38970346666538724  0.4638776606396124  0.8925494930488452  1.0000
  C   C12       1.0  0.6102965331163913  0.5361223391258112  0.10745050694754815  1.0000
  C   C13       1.0  0.5209624991095547  0.48549901453897026  0.8378143365626205  1.0000
  C   C14       1.0  0.47903750067222384  0.5145009852264534  0.16218566343377297  1.0000
  C   C15       1.0  0.6506774967357931  0.4104242820021436  0.8834300004285954  1.0000
  C   C16       1.0  0.3493225030459855  0.58957571776328  0.11656999956779791  1.0000
  C   C17       1.0  0.6531969248759015  0.31592285505744216  0.9800275481744917  1.0000
  C   C18       1.0  0.3468030749058772  0.6840771447079815  0.019972451821901688  1.0000
  C   C19       1.0  0.5251256757000391  0.29740188601758755  0.033685770872126666  1.0000
  C   C20       1.0  0.4748743240817395  0.7025981137478362  0.9663142291242667  1.0000
  C   C21       1.0  0.3942777875335896  0.3721073958039836  0.9905988044289753  1.0000
  C   C22       1.0  0.6057222122651083  0.6278926039647409  0.009401196258076061  1.0000
  C   C23       1.0  0.475572551485639  0.7033137653493595  0.7211227490323044  1.0000
  C   C24       1.0  0.5244274482961396  0.2966862344160642  0.2788772509640889  1.0000
  C   C25       1.0  0.4154367384068257  0.7755738253907681  0.6128161340260629  1.0000
  C   C26       1.0  0.584563261374953  0.22442617437465556  0.3871838659703304  1.0000
  C   C27       1.0  0.5766368015911157  0.6370049576790336  0.5638287788581838  1.0000
  C   C28       1.0  0.4233631981312992  0.3629950430110941  0.4361712215211068  1.0000
  C   C29       1.0  0.6316876126480626  0.5690527936732996  0.6737104779926723  1.0000
  C   C30       1.0  0.36831238713371606  0.430947206092124  0.32628952200372113  1.0000
  C   C31       1.0  0.5680898844127016  0.8290229954720062  0.3567372473681206  1.0000
  C   C32       1.0  0.43191011536907714  0.17097700429341753  0.6432627526282726  1.0000
  C   C33       1.0  0.6719543817628918  0.9174575098360906  0.3190388764691461  1.0000
  C   C34       1.0  0.32804561794260373  0.08254249085073631  0.6809611232194864  1.0000
  C   C35       1.0  0.7723750894172031  0.9112448223476335  0.24931288254576567  1.0000
  C   C36       1.0  0.22762491140095067  0.08875517833666685  0.750687117158866  1.0000
  C   C37       1.0  0.7653052469861599  0.8164799895896572  0.2152158613509262  1.0000
  C   C38       1.0  0.23469475281253813  0.18352001017906722  0.7847841393361253  1.0000
  C   C39       1.0  0.6596216071694886  0.7293285044707284  0.25042026420577107  1.0000
  C   C40       1.0  0.3403783925360069  0.2706714962160985  0.7495797354828614  1.0000
  C   C41       1.0  0.5622436779241128  0.7351598663156473  0.3213526498426491  1.0000
  C   C42       1.0  0.4377563218576659  0.26484013344977625  0.6786473501537443  1.0000
  C   C43       1.0  0.1129263683995748  0.08770663886634823  0.14059209400272224  1.0000
  C   C44       1.0  0.8870736324948619  0.912293360896549  0.8594079060096703  1.0000
  C   C45       1.0  0.20577348532382508  0.05524561816156609  0.06705540051614253  1.0000
  C   C46       1.0  0.7942265144579536  0.9447543816038575  0.9329445994802509  1.0000
  C   C47       1.0  0.2956179502019287  0.9313168253997929  0.12009275722656221  1.0000
  C   C48       1.0  0.7043820506925083  0.06868317436310448  0.8799072427858303  1.0000
  C   C49       1.0  0.1933163926754505  0.8306968167366379  0.17761649349778122  1.0000
  C   C50       1.0  0.806683607030045  0.1693031839501891  0.8223835061908514  1.0000
  C   C51       1.0  0.10101960523017679  0.8683988662613423  0.24818365240138915  1.0000
  C   C52       1.0  0.8989803945685213  0.131601133507382  0.7518163482856624  1.0000
  C   C53       1.0  0.1320786169846934  0.629329214366945  0.4855077428593849  1.0000
  C   C54       1.0  0.8679213827208021  0.370670786319882  0.5144922568292477  1.0000
  C   C55       1.0  0.9920357888221855  0.5598156250052878  0.5069152648570949  1.0000
  C   C56       1.0  0.007964210883310013  0.4401843756815391  0.49308473483153764  1.0000
  C   C57       1.0  0.8528638210641858  0.8830145959291748  0.5584060853078869  1.0000
  C   C58       1.0  0.14713617871759282  0.11698540383624897  0.4415939146885064  1.0000
  C   C59       1.0  0.9814009695664003  0.962755057293113  0.5552685186625862  1.0000
  C   C60       1.0  0.018599030215378315  0.037244942472310597  0.4447314813338072  1.0000
  N   N1        1.0  0.5140691428837963  0.5751855965747982  0.7380012325858657  1.0000
  N   N2        1.0  0.4859308569149018  0.4248144031939263  0.2619987681011858  1.0000
  N   N3        1.0  0.5266536865411966  0.7679814704310959  0.540551947283643  1.0000
  N   N4        1.0  0.4733463131642988  0.23201853025573096  0.4594480524049897  1.0000
  N   N5        1.0  0.01777950838764304  0.9877742833780158  0.193276032569165  1.0000
  N   N6        1.0  0.9822204913941355  0.012225716387407793  0.8067239674272284  1.0000
  O   O1        1.0  0.2649464105362836  0.5356302900614694  0.8410080290436927  1.0000
  O   O2        1.0  0.7350535892454951  0.4643697097039542  0.15899197095270073  1.0000
  O   O3        1.0  0.8191789654086017  0.12241653783444766  0.18135934037622345  1.0000
  O   O4        1.0  0.18082103437317684  0.877583461930976  0.8186406596201699  1.0000
  O   O5        1.0  0.12653588199303534  0.732644476267498  0.49999833826426565  1.0000
  O   O6        1.0  0.8734641178056627  0.26735552350122643  0.5000016624227859  1.0000
  O   O7        1.0  0.24480889620127325  0.5942993407303325  0.45529346706041574  1.0000
  O   O8        1.0  0.7551911046168807  0.40570065995396787  0.544706532644216  1.0000
  O   O9        1.0  0.8804153054663642  0.7809595690693126  0.5493271849810291  1.0000
  O   O10       1.0  0.11958469431541462  0.21904043069611095  0.45067281501536427  1.0000
  O   O11       1.0  0.7217499234512856  0.920361735581063  0.5668872820318563  1.0000
  O   O12       1.0  0.278250076330493  0.07963826418436061  0.43311271796453715  1.0000
