data_image0
_chemical_formula_structural       H28C40N2O4I2
_chemical_formula_sum              "H28 C40 N2 O4 I2"
_cell_length_a       6.861898438964887
_cell_length_b       8.61545274941425
_cell_length_c       14.143616115572422
_cell_angle_alpha    78.32753477045708
_cell_angle_beta     83.07640457379824
_cell_angle_gamma    81.21473933405628

_space_group_name_H-M_alt    "P 1"
_space_group_IT_number       1

loop_
  _space_group_symop_operation_xyz
  'x, y, z'

loop_
  _atom_site_type_symbol
  _atom_site_label
  _atom_site_symmetry_multiplicity
  _atom_site_fract_x
  _atom_site_fract_y
  _atom_site_fract_z
  _atom_site_occupancy
  H   H1        1.0  0.6336308125863104  0.44220563831845044  0.5556607920661816  1.0000
  H   H2        1.0  0.3663691871299618  0.5577943618205912  0.4443392078379131  1.0000
  H   H3        1.0  0.6194688423738023  0.4611296554863364  0.7294724981101038  1.0000
  H   H4        1.0  0.38053115734246973  0.538870344652705  0.27052750179399093  1.0000
  H   H5        1.0  0.6756856045449822  0.2142865730340049  0.8546044217757325  1.0000
  H   H6        1.0  0.32431439517129  0.7857134271050366  0.14539557812836215  1.0000
  H   H7        1.0  0.7415029590592092  0.9472005326022127  0.8079323042568056  1.0000
  H   H8        1.0  0.2584970406570629  0.05279946753682867  0.19206769564728907  1.0000
  H   H9        1.0  0.8390537492890473  0.6200547286210984  0.5743185803263878  1.0000
  H   H10       1.0  0.16094625042722485  0.37994527151794316  0.4256814195777068  1.0000
  H   H11       1.0  0.8530166664563683  0.5831769356413063  0.40263983548936433  1.0000
  H   H12       1.0  0.14698333325990368  0.4168230644977351  0.5973601644147304  1.0000
  H   H13       1.0  0.8116625121922737  0.8181467289746979  0.26973572040785315  1.0000
  H   H14       1.0  0.18833748776537215  0.18185326999007698  0.7302642794957686  1.0000
  H   H15       1.0  0.7501220152650813  0.09330327524829825  0.3051465319615106  1.0000
  H   H16       1.0  0.24987798469256486  0.9066967237164767  0.6948534679421112  1.0000
  H   H17       1.0  0.698970700731946  0.27175317890797096  0.4266906539506557  1.0000
  H   H18       1.0  0.301029300437868  0.7282468212421294  0.5733093459595549  1.0000
  H   H19       1.0  0.7098811747506949  0.4968365114942185  0.9235053446420474  1.0000
  H   H20       1.0  0.2901188249655773  0.503163488644823  0.07649465526204728  1.0000
  H   H21       1.0  0.05657830517985315  0.08107379676069648  0.07633063930945888  1.0000
  H   H22       1.0  0.9434216945364189  0.918926203378345  0.9236693605946358  1.0000
  H   H23       1.0  0.3434276131154371  0.13025280843951045  0.953841589003326  1.0000
  H   H24       1.0  0.6565723880543769  0.8697471917105899  0.04615841090688463  1.0000
  H   H25       1.0  0.3096394372919826  0.36169969826854714  0.8142588763792166  1.0000
  H   H26       1.0  0.6903605624242896  0.6383003018704944  0.1857411235248781  1.0000
  H   H27       1.0  0.8049687099659953  0.759894924130468  0.7085506813215035  1.0000
  H   H28       1.0  0.1950312897502768  0.2401050760085735  0.2914493185825911  1.0000
  C   C1        1.0  0.6581154980945974  0.3349257072662666  0.6110963780419787  1.0000
  C   C2        1.0  0.34188450162167483  0.665074292872775  0.3889036218621159  1.0000
  C   C3        1.0  0.6498622647718615  0.34525052172962195  0.7071789475452869  1.0000
  C   C4        1.0  0.35013773479512517  0.6547494781844152  0.2928210530838619  1.0000
  C   C5        1.0  0.6808302918173074  0.2040058248340492  0.7787576724819292  1.0000
  C   C6        1.0  0.3191697078989649  0.7959941753049924  0.22124232742216546  1.0000
  C   C7        1.0  0.7178872811547992  0.05583075674591468  0.7536020948368328  1.0000
  C   C8        1.0  0.282112720015015  0.9441692434041858  0.2463979050733778  1.0000
  C   C9        1.0  0.8154322607535414  0.7217944962960454  0.5152955492200466  1.0000
  C   C10       1.0  0.18456773896273065  0.27820550384299614  0.484704450684048  1.0000
  C   C11       1.0  0.8257554761044631  0.7023259047208488  0.4205972256389731  1.0000
  C   C12       1.0  0.17424452361180898  0.29767409541819273  0.5794027742651215  1.0000
  C   C13       1.0  0.8015615951315489  0.836973169390932  0.3440706775590986  1.0000
  C   C14       1.0  0.19843840458472328  0.1630268307481096  0.6559293223449959  1.0000
  C   C15       1.0  0.766626668193253  0.9891795403741257  0.36341272751198167  1.0000
  C   C16       1.0  0.23337333152301915  0.010820459764915727  0.636587272392113  1.0000
  C   C17       1.0  0.7130467895097823  0.1666679761888884  0.4846215513380591  1.0000
  C   C18       1.0  0.2869532116600317  0.8333320239612121  0.5153784485721515  1.0000
  C   C19       1.0  0.6986024874896655  0.18387799618928882  0.5815974352396716  1.0000
  C   C20       1.0  0.3013975120773213  0.8161220037247483  0.41840256538947707  1.0000
  C   C21       1.0  0.7278474450998128  0.04130320437429473  0.6545959099653084  1.0000
  C   C22       1.0  0.2721525546164594  0.9586967957647468  0.34540408993878635  1.0000
  C   C23       1.0  0.7514543550865415  0.0143413186071499  0.4606112309566344  1.0000
  C   C24       1.0  0.24854564608327256  0.9856586815429506  0.5393887689535761  1.0000
  C   C25       1.0  0.776861427733513  0.8774959459197127  0.5379578963681438  1.0000
  C   C26       1.0  0.2231385718334738  0.1225040539943245  0.4620421042610047  1.0000
  C   C27       1.0  0.008534873413842264  0.44090826632623853  0.8603770951398961  1.0000
  C   C28       1.0  0.9914651263024299  0.559091733812803  0.13962290476419856  1.0000
  C   C29       1.0  0.8481917782768325  0.41621595764646085  0.9304162101548793  1.0000
  C   C30       1.0  0.15180822143943956  0.5837840424925805  0.06958378974921549  1.0000
  C   C31       1.0  0.8676515588182981  0.2868688000413417  0.0073953936281312424  1.0000
  C   C32       1.0  0.1323484407486886  0.7131311998726955  0.9926046070010174  1.0000
  C   C33       1.0  0.04453844849358003  0.1828337958117205  0.01657922891772763  1.0000
  C   C34       1.0  0.955461551222692  0.8171662043273209  0.983420770986367  1.0000
  C   C35       1.0  0.20485147459420483  0.2106687464438955  0.947219434715752  1.0000
  C   C36       1.0  0.7951485251220672  0.789331253695146  0.052780565188342565  1.0000
  C   C37       1.0  0.18735438968182186  0.338835063110983  0.8695817573391718  1.0000
  C   C38       1.0  0.8126456100344501  0.6611649370280585  0.1304182425649229  1.0000
  C   C39       1.0  0.9899409744821606  0.5720839559054087  0.7733510304334184  1.0000
  C   C40       1.0  0.010059025234111629  0.4279160442336328  0.2266489694706762  1.0000
  N   N1        1.0  0.7656076093286855  0.8947018572329187  0.6313546873667223  1.0000
  N   N2        1.0  0.23439239038758652  0.10529814290612267  0.3686453125373723  1.0000
  O   O1        1.0  0.8171881649901875  0.6649319427885275  0.7740835686659638  1.0000
  O   O2        1.0  0.18281183496745848  0.3350680561762475  0.2259164312376579  1.0000
  O   O3        1.0  0.12463398692344048  0.5875230231125809  0.7068994361668491  1.0000
  O   O4        1.0  0.8753660127928317  0.4124769770264605  0.2931005637372455  1.0000
  I   I1        1.0  0.6199108975587693  0.24911902707590255  0.10896851734760872  1.0000
  I   I2        1.0  0.3800891023988767  0.7508809718888725  0.8910314825560129  1.0000
