data_image0
_chemical_formula_structural       H14C12N8O4
_chemical_formula_sum              "H14 C12 N8 O4"
_cell_length_a       4.591628876933882
_cell_length_b       5.962390720419587
_cell_length_c       13.396363148853434
_cell_angle_alpha    82.66143553555176
_cell_angle_beta     84.04134583140905
_cell_angle_gamma    83.26358677940844

_space_group_name_H-M_alt    "P 1"
_space_group_IT_number       1

loop_
  _space_group_symop_operation_xyz
  'x, y, z'

loop_
  _atom_site_type_symbol
  _atom_site_label
  _atom_site_symmetry_multiplicity
  _atom_site_fract_x
  _atom_site_fract_y
  _atom_site_fract_z
  _atom_site_occupancy
  H   H1        1.0  0.18089934413789657  0.3366021664575524  0.17793557539091528  1.0000
  H   H2        1.0  0.8191006558635605  0.6633978341645638  0.8220644247155582  1.0000
  H   H3        1.0  0.9732922424752202  0.6644648007159226  0.08120330556925666  1.0000
  H   H4        1.0  0.026707757745887222  0.3355351982037684  0.9187966938805655  1.0000
  H   H5        1.0  0.6864059768021193  0.5122248470729812  0.0534078040953403  1.0000
  H   H6        1.0  0.3135940234197204  0.4877751518486449  0.9465921961008166  1.0000
  H   H7        1.0  0.46099280208414906  0.720527529022984  0.2182653841117126  1.0000
  H   H8        1.0  0.5390071981376908  0.2794724698986421  0.7817346160844443  1.0000
  H   H9        1.0  0.8061932079595575  0.7542871366773739  0.3477353971794996  1.0000
  H   H10       1.0  0.19380679204189963  0.24571286394474248  0.652264602926974  1.0000
  H   H11       1.0  0.729569568264174  0.05137551196168941  0.4593607186319071  1.0000
  H   H12       1.0  0.27043043173728293  0.9486244886604268  0.5406392814745663  1.0000
  H   H13       1.0  0.3817154847012675  0.04505849098740707  0.32391896711773144  1.0000
  H   H14       1.0  0.6182845153001896  0.9549415096347091  0.6760810329887421  1.0000
  C   C1        1.0  0.9259126233913787  0.5081798494686663  0.053783586447360004  1.0000
  C   C2        1.0  0.07408737683046127  0.49182014945295977  0.9462164137487968  1.0000
  C   C3        1.0  0.5209814872227231  0.5767016166020711  0.2739671250118177  1.0000
  C   C4        1.0  0.47901851299838416  0.42329838231762007  0.7260328744380046  1.0000
  C   C5        1.0  0.7083331913160008  0.5975236887530752  0.3465124730087403  1.0000
  C   C6        1.0  0.29166680890583907  0.40247631016855095  0.6534875271874165  1.0000
  C   C7        1.0  0.7801362056772836  0.40690937510598285  0.41549674035239564  1.0000
  C   C8        1.0  0.21986379432417358  0.5930906255161333  0.5845032597540778  1.0000
  C   C9        1.0  0.6672806750283949  0.2025545302197633  0.4080016936865203  1.0000
  C   C10       1.0  0.33271932497306217  0.7974454704023529  0.5919983064199531  1.0000
  C   C11       1.0  0.47902404589845854  0.19876421386567944  0.33324153452661187  1.0000
  C   C12       1.0  0.5209759543226486  0.8012357850540116  0.6667584649232102  1.0000
  N   N1        1.0  0.9302373252339945  0.11923430955655494  0.12976749779752472  1.0000
  N   N2        1.0  0.06976267476746253  0.8807656910655614  0.8702325023089488  1.0000
  N   N3        1.0  0.032991991151698916  0.3213558183519556  0.12422883237429122  1.0000
  N   N4        1.0  0.967008009070141  0.6786441805696705  0.8757711678218656  1.0000
  N   N5        1.0  0.40668086184598706  0.3813915326085736  0.26757454592876423  1.0000
  N   N6        1.0  0.59331913815547  0.6186084680135425  0.7324254541777092  1.0000
  N   N7        1.0  0.9698898213370274  0.40288707845769584  0.4927132133748556  1.0000
  N   N8        1.0  0.030110178664429773  0.5971129221644205  0.5072867867316179  1.0000
  O   O1        1.0  0.030065048313529196  0.9655733458833329  0.1948152169409755  1.0000
  O   O2        1.0  0.9699349516879278  0.03442665473878351  0.8051847831654979  1.0000
  O   O3        1.0  0.7414447501554469  0.0936876965790985  0.07270499664947562  1.0000
  O   O4        1.0  0.25855524765507737  0.9063123040522287  0.9272950035347657  1.0000
