data_image0
_chemical_formula_structural       H72C88N8O16S4
_chemical_formula_sum              "H72 C88 N8 O16 S4"
_cell_length_a       8.385014222333881
_cell_length_b       10.894952921246482
_cell_length_c       21.03448194338968
_cell_angle_alpha    90.0
_cell_angle_beta     97.02998800963778
_cell_angle_gamma    90.0

_space_group_name_H-M_alt    "P 1"
_space_group_IT_number       1

loop_
  _space_group_symop_operation_xyz
  'x, y, z'

loop_
  _atom_site_type_symbol
  _atom_site_label
  _atom_site_symmetry_multiplicity
  _atom_site_fract_x
  _atom_site_fract_y
  _atom_site_fract_z
  _atom_site_occupancy
  H   H1        1.0  0.27859737387832406  0.2954296042641139  0.5167432749533689  1.0000
  H   H2        1.0  0.7214026258495113  0.7954296042069093  0.9832567250538746  1.0000
  H   H3        1.0  0.7214026257597459  0.704570395621477  0.48325672494466937  1.0000
  H   H4        1.0  0.27859737378855864  0.20457039567868152  0.01674327484416364  1.0000
  H   H5        1.0  0.22908149087303717  0.19475143815098248  0.1940990329558303  1.0000
  H   H6        1.0  0.7709185086680597  0.6947514380937779  0.3059009673080524  1.0000
  H   H7        1.0  0.7709185087650328  0.8052485617346083  0.8059009669422079  1.0000
  H   H8        1.0  0.2290814909628026  0.305248561791813  0.6940990330650356  1.0000
  H   H9        1.0  0.8856659823695814  0.5029977751728572  0.3289571219746617  1.0000
  H   H10       1.0  0.11433401717872319  0.002997775230061603  0.17104287781417135  1.0000
  H   H11       1.0  0.11433401726848859  0.49700222471273386  0.6710428779233767  1.0000
  H   H12       1.0  0.8856659824593468  0.9970022246555293  0.828957122083867  1.0000
  H   H13       1.0  0.9722489673503062  0.5012316243561358  0.4449490780000929  1.0000
  H   H14       1.0  0.027751032197998123  0.0012316244133402645  0.05505092178874014  1.0000
  H   H15       1.0  0.027751032287763516  0.49876837552945513  0.5550509218979455  1.0000
  H   H16       1.0  0.9722489674400717  0.9987683754722507  0.9449490781092982  1.0000
  H   H17       1.0  0.2698936778304639  0.18281048797520918  0.42111043115073094  1.0000
  H   H18       1.0  0.7301063229194564  0.6828104879180046  0.07888956869957833  1.0000
  H   H19       1.0  0.7301063230092218  0.8171895128282379  0.5788895688087836  1.0000
  H   H20       1.0  0.26989367792022934  0.31718951196758627  0.9211104312599362  1.0000
  H   H21       1.0  0.181538040893642  0.18545444983610213  0.3051297512945492  1.0000
  H   H22       1.0  0.8184619598562783  0.6854544497788976  0.19487024855575996  1.0000
  H   H23       1.0  0.8184619599460438  0.8145455500494887  0.6948702486649652  1.0000
  H   H24       1.0  0.1815380409834074  0.31454555010669333  0.8051297514037545  1.0000
  H   H25       1.0  0.6533999493714815  0.45757469316624105  0.23966946077367562  1.0000
  H   H26       1.0  0.3466000513784388  0.9575746931090364  0.2603305390766336  1.0000
  H   H27       1.0  0.3466000514682042  0.54242530671935  0.7603305391858389  1.0000
  H   H28       1.0  0.6533999482596312  0.04242530677655444  0.7396694608214048  1.0000
  H   H29       1.0  0.378803737675266  0.36664690695542546  0.2243715066149231  1.0000
  H   H30       1.0  0.6211962618658308  0.866646906898221  0.2756284936489596  1.0000
  H   H31       1.0  0.6211962619555962  0.6333530929301654  0.7756284937581649  1.0000
  H   H32       1.0  0.3788037377722391  0.13335309298736997  0.7243715062490788  1.0000
  H   H33       1.0  0.5785864062543626  0.017560679828812965  0.17853470227005686  1.0000
  H   H34       1.0  0.4214135932939419  0.5175606797716085  0.3214652975187761  1.0000
  H   H35       1.0  0.4214135933837073  0.9824393209746342  0.8214652976279816  1.0000
  H   H36       1.0  0.5785864063441281  0.4824393210318387  0.6785347023792622  1.0000
  H   H37       1.0  0.8545774794559604  0.10770000003503953  0.1955515865356407  1.0000
  H   H38       1.0  0.1454225200851365  0.607699999977835  0.30444841372824194  1.0000
  H   H39       1.0  0.14542252018210966  0.8922999998505514  0.8044484133623977  1.0000
  H   H40       1.0  0.8545774795457257  0.39229999990775594  0.6955515866448461  1.0000
  H   H41       1.0  0.7502161546952927  0.052066579277618395  0.587116511063607  1.0000
  H   H42       1.0  0.2497838450325426  0.5520665792204138  0.9128834889436366  1.0000
  H   H43       1.0  0.2497838449355695  0.9479334206079725  0.41288348930948104  1.0000
  H   H44       1.0  0.7502161546055274  0.44793342066517705  0.08711651095440165  1.0000
  H   H45       1.0  0.9231553919678573  0.2209433549093848  0.5495763740147926  1.0000
  H   H46       1.0  0.07684460775997798  0.7209433548521803  0.9504236259924508  1.0000
  H   H47       1.0  0.07684460767021258  0.7790566449762062  0.4504236258832456  1.0000
  H   H48       1.0  0.9231553918780919  0.27905664503341066  0.04957637390558745  1.0000
  H   H49       1.0  0.7850162644678281  0.4058038040144347  0.49587071983906905  1.0000
  H   H50       1.0  0.2149837350732686  0.9058038039572301  0.004129280424813607  1.0000
  H   H51       1.0  0.21498373517024175  0.5941961967890124  0.5041292800589693  1.0000
  H   H52       1.0  0.7850162645575935  0.09419619592836077  0.9958707199482743  1.0000
  H   H53       1.0  0.48545247002620096  0.4137583661521924  0.48406711987255224  1.0000
  H   H54       1.0  0.5145475295221036  0.9137583660949878  0.015932879916280777  1.0000
  H   H55       1.0  0.514547529611869  0.5862416337333985  0.5159328800254861  1.0000
  H   H56       1.0  0.4854524701159664  0.08624163379060305  0.9840671199817574  1.0000
  H   H57       1.0  0.2037715167936541  0.15179011437259118  0.5632727682075623  1.0000
  H   H58       1.0  0.7962284841357972  0.6517901143153866  0.9367272318611575  1.0000
  H   H59       1.0  0.7962284840460317  0.8482098864308559  0.4367272317519522  1.0000
  H   H60       1.0  0.20377151669668095  0.34820988557020427  0.06327276857340663  1.0000
  H   H61       1.0  0.04458329349537712  0.982650411377376  0.6048704541585757  1.0000
  H   H62       1.0  0.9554167074340741  0.4826504114345806  0.8951295459101442  1.0000
  H   H63       1.0  0.9554167073443087  0.017349588508214872  0.3951295458009389  1.0000
  H   H64       1.0  0.04458329340561172  0.5173495884510103  0.10487045404937033  1.0000
  H   H65       1.0  0.18618469415262162  0.7893670373947856  0.6437353660287467  1.0000
  H   H66       1.0  0.8138153067768296  0.28936703745199016  0.856264634039973  1.0000
  H   H67       1.0  0.8138153066798564  0.21063296249080532  0.3562646344058174  1.0000
  H   H68       1.0  0.18618469406285623  0.7106329624336007  0.14373536591954142  1.0000
  H   H69       1.0  0.4816225507453151  0.7725954596449025  0.6380230086649712  1.0000
  H   H70       1.0  0.5183774489825203  0.27259545970210713  0.8619769913422723  1.0000
  H   H71       1.0  0.5183774488927548  0.2274045402406883  0.3619769912330671  1.0000
  H   H72       1.0  0.4816225506555497  0.7274045401834838  0.13802300855576594  1.0000
  C   C1        1.0  0.03184994564501107  0.34697076318963177  0.30953880092044445  1.0000
  C   C2        1.0  0.9681500539032936  0.8469707631324273  0.19046119886838853  1.0000
  C   C3        1.0  0.9681500539930589  0.6530292366959591  0.6904611989775938  1.0000
  C   C4        1.0  0.031849945734776466  0.15302923675316368  0.8095388010296497  1.0000
  C   C5        1.0  0.970758387217047  0.4341192967228424  0.3492396869998016  1.0000
  C   C6        1.0  0.02924161233125738  0.9341192966656379  0.15076031278903143  1.0000
  C   C7        1.0  0.029241612421022776  0.5658807040806046  0.6507603128982368  1.0000
  C   C8        1.0  0.9707583873068125  0.06588070413780925  0.8492396871090068  1.0000
  C   C9        1.0  0.018537163086153885  0.43215891835733805  0.4145582093779635  1.0000
  C   C10       1.0  0.9814628364621506  0.9321589183001335  0.08544179041086948  1.0000
  C   C11       1.0  0.9814628365519159  0.5678410815282529  0.5854417905200748  1.0000
  C   C12       1.0  0.01853716317591928  0.0678410815854574  0.9145582094871688  1.0000
  C   C13       1.0  0.12812279604422144  0.3426747721616462  0.4412387035627973  1.0000
  C   C14       1.0  0.871877204705699  0.8426747721044417  0.0587612962875118  1.0000
  C   C15       1.0  0.8718772047954644  0.6573252277239446  0.558761296396717  1.0000
  C   C16       1.0  0.12812279613398683  0.15732522778114924  0.9412387036720027  1.0000
  C   C17       1.0  0.18664101360343324  0.253901414718873  0.40113578141541045  1.0000
  C   C18       1.0  0.8133589859376635  0.7539014146616685  0.09886421884847219  1.0000
  C   C19       1.0  0.8133589860346367  0.746098585166718  0.5988642184826278  1.0000
  C   C20       1.0  0.18664101369319863  0.24609858522392244  0.9011357815246158  1.0000
  C   C21       1.0  0.13846457624854813  0.25604287876820375  0.33541429060461414  1.0000
  C   C22       1.0  0.8615354232925487  0.7560428787109992  0.16458570965926853  1.0000
  C   C23       1.0  0.8615354233895218  0.7439571211173872  0.6645857092934242  1.0000
  C   C24       1.0  0.13846457633831352  0.24395712117459173  0.8354142907138195  1.0000
  C   C25       1.0  0.7690183343307504  0.2872366702840204  0.21871756519231922  1.0000
  C   C26       1.0  0.23098166521755417  0.7872366702268158  0.2812824345965138  1.0000
  C   C27       1.0  0.23098166530731956  0.7127633296015706  0.781282434705719  1.0000
  C   C28       1.0  0.7690183344205158  0.21276332965877512  0.7187175653015245  1.0000
  C   C29       1.0  0.6367724720785151  0.3608717943455032  0.22761795903517165  1.0000
  C   C30       1.0  0.3632275286641976  0.8608717942882986  0.27238204129018717  1.0000
  C   C31       1.0  0.36322752876117076  0.6391282055400876  0.7723820409243429  1.0000
  C   C32       1.0  0.6367724721682805  0.13912820559729222  0.727617959144377  1.0000
  C   C33       1.0  0.483777746786387  0.3101961536161779  0.21911096367983696  1.0000
  C   C34       1.0  0.5162222539635333  0.8101961535589733  0.28088903617047223  1.0000
  C   C35       1.0  0.5162222540532987  0.6898038462694129  0.7808890362796774  1.0000
  C   C36       1.0  0.48377774687615244  0.18980384632661754  0.7191109637890424  1.0000
  C   C37       1.0  0.4629874998132069  0.18646194569949354  0.20090216288315377  1.0000
  C   C38       1.0  0.5370125009367134  0.686461945642289  0.2990978369671554  1.0000
  C   C39       1.0  0.5370125010264788  0.8135380541860974  0.7990978370763607  1.0000
  C   C40       1.0  0.46298749990297233  0.3135380542433019  0.7009021629923591  1.0000
  C   C41       1.0  0.5970043647712521  0.11312089541906867  0.19292133098152067  1.0000
  C   C42       1.0  0.4029956359714606  0.6131208953618641  0.3070786693438382  1.0000
  C   C43       1.0  0.40299563606843375  0.8868791044665223  0.8070786689779936  1.0000
  C   C44       1.0  0.5970043648682252  0.3868791045237268  0.6929213306156763  1.0000
  C   C45       1.0  0.7501487210287732  0.16326943336589356  0.2021531208358774  1.0000
  C   C46       1.0  0.2498512785195314  0.663269433308689  0.29784687895295564  1.0000
  C   C47       1.0  0.24985127860929676  0.8367305665196973  0.7978468790621609  1.0000
  C   C48       1.0  0.7501487211185385  0.33673056657690187  0.7021531209450828  1.0000
  C   C49       1.0  0.5306162635586771  0.1474431052260311  0.5567026386599578  1.0000
  C   C50       1.0  0.46938373616915824  0.6474431051688265  0.9432973613472856  1.0000
  C   C51       1.0  0.4693837360793928  0.8525568955774161  0.44329736123808045  1.0000
  C   C52       1.0  0.530616263461704  0.3525568947167644  0.0567026390258022  1.0000
  C   C53       1.0  0.6983802927645474  0.13473267581885598  0.5640905079834105  1.0000
  C   C54       1.0  0.3016197081649038  0.6347326757616514  0.9359094920853092  1.0000
  C   C55       1.0  0.3016197080751384  0.8652673240667349  0.435909491976104  1.0000
  C   C56       1.0  0.698380292674782  0.3652673241239395  0.06409050787420521  1.0000
  C   C57       1.0  0.7925257740016797  0.22785229527324896  0.5431554160955843  1.0000
  C   C58       1.0  0.2074742257261556  0.7278522952160444  0.9568445839116595  1.0000
  C   C59       1.0  0.2074742256363902  0.772147704612342  0.4568445838024541  1.0000
  C   C60       1.0  0.7925257739119144  0.27214770466954646  0.04315541598637887  1.0000
  C   C61       1.0  0.7174562175326527  0.3312400664864108  0.5140027953109815  1.0000
  C   C62       1.0  0.28254378219518267  0.8312400673470625  0.9859972046962623  1.0000
  C   C63       1.0  0.28254378210541725  0.66875993339918  0.4859972045870569  1.0000
  C   C64       1.0  0.7174562174356796  0.16875993345638468  0.014002795676825759  1.0000
  C   C65       1.0  0.5507662886263027  0.33664500310483014  0.5078989304465023  1.0000
  C   C66       1.0  0.4492337111015326  0.8366450030476256  0.9921010695607412  1.0000
  C   C67       1.0  0.4492337110045594  0.6633549976986169  0.49210106992658564  1.0000
  C   C68       1.0  0.5507662885365373  0.16335499775582152  0.007898930337297022  1.0000
  C   C69       1.0  0.4274082616147597  0.05001313763709771  0.5789786281824797  1.0000
  C   C70       1.0  0.5725917381130756  0.5500131375798931  0.921021371824764  1.0000
  C   C71       1.0  0.5725917380233103  0.9499868622484933  0.42102137171555876  1.0000
  C   C72       1.0  0.42740826152499434  0.44998686230569773  0.07897862807327434  1.0000
  C   C73       1.0  0.26171547456149175  0.06615481179312331  0.5795051792573839  1.0000
  C   C74       1.0  0.7382845251735514  0.566154812653775  0.9204948202748101  1.0000
  C   C75       1.0  0.7382845250765782  0.9338451880924675  0.42049482064065447  1.0000
  C   C76       1.0  0.2617154744645186  0.43384518814967216  0.07950517962322819  1.0000
  C   C77       1.0  0.17275553874146984  0.9719336748440489  0.6026400167432854  1.0000
  C   C78       1.0  0.8272444609863655  0.4719336749012536  0.8973599832639584  1.0000
  C   C79       1.0  0.8272444608966001  0.02806632504154188  0.3973599831547529  1.0000
  C   C80       1.0  0.17275553865170443  0.5280663249843374  0.10264001663408011  1.0000
  C   C81       1.0  0.25095987250323415  0.8645842536529577  0.6246691165073979  1.0000
  C   C82       1.0  0.7490401272246011  0.36458425371016223  0.8753308834998458  1.0000
  C   C83       1.0  0.7490401271348357  0.13541574623263325  0.3753308833906404  1.0000
  C   C84       1.0  0.2509598736078768  0.6354157461754287  0.1246691169347184  1.0000
  C   C85       1.0  0.41598136824283877  0.8558538350189763  0.621788999121865  1.0000
  C   C86       1.0  0.5840186314849964  0.35585383507618085  0.8782110008853786  1.0000
  C   C87       1.0  0.5840186313952311  0.14414616486661463  0.37821100077617326  1.0000
  C   C88       1.0  0.4159813681530734  0.6441461648094101  0.12178899901265977  1.0000
  N   N1        1.0  0.45924544000018364  0.24870050835336693  0.5293788817215249  1.0000
  N   N2        1.0  0.5407545597276517  0.7487005092140185  0.9706211182857187  1.0000
  N   N3        1.0  0.5407545596378863  0.751299491532224  0.4706211181765135  1.0000
  N   N4        1.0  0.4592454399104183  0.25129949158942855  0.029378881612319573  1.0000
  N   N5        1.0  0.5030350214845122  0.9453970691248824  0.5995852895069772  1.0000
  N   N6        1.0  0.496964979444939  0.445397069182087  0.9004147105617425  1.0000
  N   N7        1.0  0.4969649793551736  0.05460293076070846  0.40041471045253724  1.0000
  N   N8        1.0  0.5030350213947468  0.5546029307035039  0.099585289397772  1.0000
  O   O1        1.0  0.9427389649052439  0.482945993253362  0.21013974168340438  1.0000
  O   O2        1.0  0.0572610346358528  0.9829459931961574  0.2898602585804783  1.0000
  O   O3        1.0  0.05726103473282597  0.5170540075500851  0.789860258214634  1.0000
  O   O4        1.0  0.9427389649950093  0.01705400760728964  0.7101397417926097  1.0000
  O   O5        1.0  0.0636123893048506  0.2775333901721954  0.19208866511693576  1.0000
  O   O6        1.0  0.9363876102362463  0.7775333901149909  0.3079113351469469  1.0000
  O   O7        1.0  0.9363876103260117  0.7224666097133955  0.8079113352561522  1.0000
  O   O8        1.0  0.06361238940182376  0.22246660977060004  0.6920886647510914  1.0000
  O   O9        1.0  0.17316340363732224  0.34559511428978457  0.5050654031910646  1.0000
  O   O10       1.0  0.8268365960905131  0.84559511423258  0.9949345968161789  1.0000
  O   O11       1.0  0.8268365960007477  0.6544048855958063  0.4949345967069737  1.0000
  O   O12       1.0  0.17316340354755685  0.1544048856530109  0.005065403081859318  1.0000
  O   O13       1.0  0.3162065425006988  0.13400037343465374  0.19007451949142495  1.0000
  O   O14       1.0  0.683793457040398  0.6340003733774492  0.3099254807724577  1.0000
  O   O15       1.0  0.6837934571301634  0.8659996264509372  0.809925480881663  1.0000
  O   O16       1.0  0.316206542597672  0.3659996265081417  0.6900745191255806  1.0000
  S   S1        1.0  0.9612267001496172  0.3542462329023482  0.22744003575751828  1.0000
  S   S2        1.0  0.03877329939147956  0.8542462328451437  0.2725599645063644  1.0000
  S   S3        1.0  0.03877329948845273  0.6457537669832427  0.77255996414052  1.0000
  S   S4        1.0  0.9612267002465903  0.14575376704044726  0.7274400353916739  1.0000
