data_image0
_chemical_formula_structural       H20C32N40P12Cl48
_chemical_formula_sum              "H20 C32 N40 P12 Cl48"
_cell_length_a       14.17895422639311
_cell_length_b       13.68682223704678
_cell_length_c       14.850436573042085
_cell_angle_alpha    90.0
_cell_angle_beta     111.40840469883392
_cell_angle_gamma    90.0

_space_group_name_H-M_alt    "P 1"
_space_group_IT_number       1

loop_
  _space_group_symop_operation_xyz
  'x, y, z'

loop_
  _atom_site_type_symbol
  _atom_site_label
  _atom_site_symmetry_multiplicity
  _atom_site_fract_x
  _atom_site_fract_y
  _atom_site_fract_z
  _atom_site_occupancy
  H   H1        1.0  0.8795844515152771  0.9783907146652182  0.943537820816423  1.0000
  H   H2        1.0  0.6204155478357694  0.4783907145573327  0.5564621787391519  1.0000
  H   H3        1.0  0.12041554837984181  0.02160928555055282  0.0564621791275511  1.0000
  H   H4        1.0  0.3795844520593497  0.5216092856584383  0.44353782120482216  1.0000
  H   H5        1.0  0.1683804785216727  0.7826877214057724  0.1389695296919942  1.0000
  H   H6        1.0  0.33161952191751887  0.28268772129788683  0.36103047064037913  1.0000
  H   H7        1.0  0.8316195213734462  0.2173122788099987  0.86103047025198  1.0000
  H   H8        1.0  0.6683804779776001  0.7173122789178842  0.6389695293035952  1.0000
  H   H9        1.0  0.30322523516401373  0.7851088743531894  0.18763596798599852  1.0000
  H   H10       1.0  0.1967747652751778  0.28510887424530396  0.3123640323463747  1.0000
  H   H11       1.0  0.6967747647311052  0.21489112586258158  0.8123640319579757  1.0000
  H   H12       1.0  0.8032252346199412  0.7148911259704671  0.6876359675975995  1.0000
  H   H13       1.0  0.23314011024528355  0.7573196985012155  0.009249748972258134  1.0000
  H   H14       1.0  0.266859889914951  0.25731969839333  0.4907502506368336  1.0000
  H   H15       1.0  0.7668598896498355  0.2426803009839257  0.990750250971716  1.0000
  H   H16       1.0  0.733140110684475  0.7426803010918112  0.5092497493046314  1.0000
  H   H17       1.0  0.17363396483330515  0.6463861769208541  0.02487929015800445  1.0000
  H   H18       1.0  0.32636603560588634  0.14638617681296856  0.47512071017436885  1.0000
  H   H19       1.0  0.8263660350618138  0.3536138225642872  0.9751207097859697  1.0000
  H   H20       1.0  0.6736339649935397  0.8536138226721727  0.5248792897670961  1.0000
  C   C1        1.0  0.1090951558839748  0.77926541057359  0.7408459930824888  1.0000
  C   C2        1.0  0.3909048444750067  0.2792654104657044  0.759154007002996  1.0000
  C   C3        1.0  0.8909048440111443  0.2207345896421811  0.25915400686148554  1.0000
  C   C4        1.0  0.6090951561244193  0.7207345890194369  0.240845992938469  1.0000
  C   C5        1.0  0.06300073134121759  0.9366275317948505  0.7546210248856572  1.0000
  C   C6        1.0  0.4369992687388069  0.436627531686965  0.7453789744765459  1.0000
  C   C7        1.0  0.9369992692582085  0.06337246842092054  0.24537897505580777  1.0000
  C   C8        1.0  0.5630007311563121  0.5633724685288061  0.2546210254674283  1.0000
  C   C9        1.0  0.9952573160170274  0.08744625664534443  0.7621704986704143  1.0000
  C   C10       1.0  0.5047426840383263  0.5874462560226001  0.7378295008826516  1.0000
  C   C11       1.0  0.00474268387809173  0.9125537435704266  0.23782950127355987  1.0000
  C   C12       1.0  0.4952573158567927  0.4125537434625411  0.26217049906132267  1.0000
  C   C13       1.0  0.9665267501480006  0.9686818423135106  0.8553272768101738  1.0000
  C   C14       1.0  0.5334732492030457  0.4686818422056251  0.6446727227454011  1.0000
  C   C15       1.0  0.03347324974711831  0.0313181579022604  0.1446727231338002  1.0000
  C   C16       1.0  0.4665267506920733  0.5313181580101459  0.3553272771985731  1.0000
  C   C17       1.0  0.9345546105965302  0.8350250454093727  0.9425114241405805  1.0000
  C   C18       1.0  0.5654453897377801  0.3350250453014872  0.557488576135767  1.0000
  C   C19       1.0  0.06544539000289577  0.16497495407576854  0.05748857580088444  1.0000
  C   C20       1.0  0.4345546104362958  0.664974954183654  0.4425114245314888  1.0000
  C   C21       1.0  0.023742944541400583  0.8034456435208843  0.8441639359219403  1.0000
  C   C22       1.0  0.47625705511327376  0.3034456434129988  0.6558360641660536  1.0000
  C   C23       1.0  0.9762570553537183  0.1965543566948867  0.15583606402203387  1.0000
  C   C24       1.0  0.5237429450608022  0.6965543568027722  0.3441639365012022  1.0000
  C   C25       1.0  0.2368917951346421  0.7388062162909962  0.15227621693169646  1.0000
  C   C26       1.0  0.26310820502559246  0.23880621618311068  0.34772378267739523  1.0000
  C   C27       1.0  0.7631082047604769  0.2611937839247748  0.8477237830122778  1.0000
  C   C28       1.0  0.7368917948695265  0.7611937840326602  0.6522762172665789  1.0000
  C   C29       1.0  0.23686643292257806  0.696644420805844  0.05862902369375065  1.0000
  C   C30       1.0  0.2631335665333494  0.19664442142858823  0.44137097591785024  1.0000
  C   C31       1.0  0.7631335669725409  0.30335557867929724  0.9413709762502236  1.0000
  C   C32       1.0  0.7368664333617696  0.8033555787871828  0.5586290240261239  1.0000
  N   N1        1.0  0.1121624768038651  0.874498602575742  0.7185697827894617  1.0000
  N   N2        1.0  0.38783752355511636  0.37449860246785643  0.781430217296023  1.0000
  N   N3        1.0  0.8878375230912539  0.12550139690939927  0.28143021715451244  1.0000
  N   N4        1.0  0.6121624770443097  0.6255013970172848  0.21856978264544205  1.0000
  N   N5        1.0  0.053728980999408656  0.03069949055542511  0.7296858535595507  1.0000
  N   N6        1.0  0.44627101865526564  0.5306994906633106  0.7703141465284431  1.0000
  N   N7        1.0  0.9462710188957104  0.9693005096603459  0.2703141463844235  1.0000
  N   N8        1.0  0.5537289812398533  0.4693005095524604  0.22968585341553097  1.0000
  N   N9        1.0  0.9545109524193048  0.060568000785175  0.8289029769948287  1.0000
  N   N10       1.0  0.5454890472106987  0.5605680008930605  0.671097023284028  1.0000
  N   N11       1.0  0.04548904747581418  0.939431999430596  0.17109702294914544  1.0000
  N   N12       1.0  0.4545109526844204  0.4394319993227105  0.32890297665994617  1.0000
  N   N13       1.0  0.9281757560398459  0.9326565611006532  0.9200313763009161  1.0000
  N   N14       1.0  0.5718242440155077  0.43265656172339756  0.5799686232521498  1.0000
  N   N15       1.0  0.07182424385527308  0.067343438384488  0.07996862364305808  1.0000
  N   N16       1.0  0.42817575658391843  0.5673434384923736  0.42003137668931523  1.0000
  N   N17       1.0  0.983076239532262  0.7712783184563193  0.9071023519692115  1.0000
  N   N18       1.0  0.5169237605230916  0.27127831834843386  0.5928976475838544  1.0000
  N   N19       1.0  0.016923760362857063  0.22872168175945165  0.09289764797476271  1.0000
  N   N20       1.0  0.4830762400763345  0.7287216818673371  0.4071023523576105  1.0000
  N   N21       1.0  0.06961940906735221  0.7426298905591069  0.8048092693418383  1.0000
  N   N22       1.0  0.43038059129162914  0.2426298904512213  0.6951907307436462  1.0000
  N   N23       1.0  0.9303805908277668  0.2573701096566642  0.19519073060213588  1.0000
  N   N24       1.0  0.5696194086034897  0.75737010903392  0.30480926920032786  1.0000
  N   N25       1.0  0.0158781082132893  0.9024184427973575  0.8174843590891894  1.0000
  N   N26       1.0  0.48412189214569207  0.40241844268947197  0.6825156409962951  1.0000
  N   N27       1.0  0.9841218916818295  0.09758155741841357  0.18251564085478475  1.0000
  N   N28       1.0  0.515878108453734  0.597581557526299  0.31748435894516974  1.0000
  N   N29       1.0  0.14842871643514824  0.714697462316911  0.6946875817718511  1.0000
  N   N30       1.0  0.35157128392383313  0.2146974622090254  0.8053124183136335  1.0000
  N   N31       1.0  0.8515712837389277  0.28530253789886006  0.30531241889540467  1.0000
  N   N32       1.0  0.6484287159712858  0.7853025380067457  0.19468758163034064  1.0000
  N   N33       1.0  0.9707356433006011  0.17883274273664654  0.7261790867033726  1.0000
  N   N34       1.0  0.5292643563294022  0.6788327428445321  0.7738209135754841  1.0000
  N   N35       1.0  0.029264356594517784  0.8211672574791244  0.2738209132406016  1.0000
  N   N36       1.0  0.4707356435657168  0.32116725737123897  0.2261790863684901  1.0000
  N   N37       1.0  0.8872465145425541  0.8078243312076275  0.001842313231410999  1.0000
  N   N38       1.0  0.6127534855930096  0.30782433183037183  0.49815768656854353  1.0000
  N   N39       1.0  0.11275348535256495  0.1921756682775137  0.9981576867125631  1.0000
  N   N40       1.0  0.3872465143021094  0.6921756683853992  0.5018423133754307  1.0000
  P   P1        1.0  0.13492729657168678  0.6007612627380905  0.7053154809375095  1.0000
  P   P2        1.0  0.36507270308298756  0.10076126263020496  0.7946845191504844  1.0000
  P   P3        1.0  0.8650727033234321  0.39923873674705074  0.29468451900646464  1.0000
  P   P4        1.0  0.6349272968121314  0.8992387368549363  0.20531548079348985  1.0000
  P   P5        1.0  0.9816652127467699  0.21711821331006034  0.6306978498500564  1.0000
  P   P6        1.0  0.5183347875875406  0.7171182134179459  0.869302150426291  1.0000
  P   P7        1.0  0.0183347878526562  0.7828817869057106  0.36930215009140854  1.0000
  P   P8        1.0  0.48166521230757836  0.28288178679782516  0.13069784951768312  1.0000
  P   P9        1.0  0.8726774629016355  0.6986297669679684  0.027141752592043402  1.0000
  P   P10       1.0  0.6273225365296209  0.19862976759071266  0.4728582472104203  1.0000
  P   P11       1.0  0.12732253699348348  0.3013702325171729  0.9728582473519308  1.0000
  P   P12       1.0  0.37267746336549806  0.8013702326250584  0.5271417527335539  1.0000
  Cl  Cl1       1.0  0.19408925825108414  0.533011467063088  0.6204118169257546  1.0000
  Cl  Cl2       1.0  0.3059107421078973  0.03301146695520246  0.8795881831597301  1.0000
  Cl  Cl3       1.0  0.8059107419229918  0.46698853315268307  0.37958818374150116  1.0000
  Cl  Cl4       1.0  0.6940892584915287  0.9669885332605686  0.1204118167817349  1.0000
  Cl  Cl5       1.0  0.20555509240668884  0.5439482321797436  0.837477563835454  1.0000
  Cl  Cl6       1.0  0.29444490795229256  0.04394823207185811  0.6625224362500306  1.0000
  Cl  Cl7       1.0  0.7944449074884301  0.4560517673053976  0.16252243610852019  1.0000
  Cl  Cl8       1.0  0.7055550919428263  0.9560517674132831  0.3374775636939435  1.0000
  Cl  Cl9       1.0  0.9897135930465966  0.5570418500331942  0.6622072162973276  1.0000
  Cl  Cl10      1.0  0.5102864072877139  0.057041849925308676  0.8377927839790197  1.0000
  Cl  Cl11      1.0  0.010286407552829488  0.4429581501825768  0.3377927836441373  1.0000
  Cl  Cl12      1.0  0.48971359260740505  0.9429581502904624  0.16220721596495447  1.0000
  Cl  Cl13      1.0  0.944790365489117  0.1260778974194039  0.5180644876225617  1.0000
  Cl  Cl14      1.0  0.5552096341408864  0.6260778975272894  0.9819355126562949  1.0000
  Cl  Cl15      1.0  0.05520963468495891  0.8739221027963672  0.481935513044694  1.0000
  Cl  Cl16      1.0  0.44479036575423264  0.37392210268848164  0.018064487287679263  1.0000
  Cl  Cl17      1.0  0.11740467861512388  0.2696766974885775  0.6409929311159916  1.0000
  Cl  Cl18      1.0  0.3825953210395505  0.769676697596463  0.8590070689720023  1.0000
  Cl  Cl19      1.0  0.8825953212799951  0.7303233027271935  0.35900706882798256  1.0000
  Cl  Cl20      1.0  0.6174046788555686  0.23032330261930803  0.1409929309719719  1.0000
  Cl  Cl21      1.0  0.8888992741308634  0.3302661481030055  0.5880481996836588  1.0000
  Cl  Cl22      1.0  0.6111007259244902  0.8302661474802611  0.9119517998694071  1.0000
  Cl  Cl23      1.0  0.11110072576425549  0.6697338521127656  0.41195180026031536  1.0000
  Cl  Cl24      1.0  0.3888992739706289  0.1697338520048801  0.08804820007456712  1.0000
  Cl  Cl25      1.0  0.7932439889855775  0.7059007359537884  0.11144293318785936  1.0000
  Cl  Cl26      1.0  0.706756010445679  0.205900735845903  0.3885570666146044  1.0000
  Cl  Cl27      1.0  0.20675601090954146  0.2940992642619825  0.8885570667561148  1.0000
  Cl  Cl28      1.0  0.29324398944943997  0.7940992643698681  0.6114429333293698  1.0000
  Cl  Cl29      1.0  0.9963368274182225  0.6203705880695424  0.09949701828752557  1.0000
  Cl  Cl30      1.0  0.5036631727173411  0.12037058796165681  0.4005029815124289  1.0000
  Cl  Cl31      1.0  0.0036631724768964916  0.3796294121462287  0.9005029816564487  1.0000
  Cl  Cl32      1.0  0.49633682717777783  0.8796294122541142  0.5994970184315452  1.0000
  Cl  Cl33      1.0  0.7945644855430142  0.6133427368755932  0.9143757588573969  1.0000
  Cl  Cl34      1.0  0.7054355145123393  0.11334273676770759  0.5856242406956689  1.0000
  Cl  Cl35      1.0  0.20543551435210478  0.3866572633401779  0.08562424108657732  1.0000
  Cl  Cl36      1.0  0.29456448538277963  0.8866572634480634  0.41437575924830516  1.0000
  Cl  Cl37      1.0  0.23710787787333457  0.6450920912891975  0.23722683999332256  1.0000
  Cl  Cl38      1.0  0.262892122565857  0.14509209191194178  0.26277316033905074  1.0000
  Cl  Cl39      1.0  0.7628921220217844  0.35490790819594376  0.7627731599506516  1.0000
  Cl  Cl40      1.0  0.7371078780335693  0.8549079083038292  0.7372268396024142  1.0000
  Cl  Cl41      1.0  0.3513764118315429  0.6305291024121674  0.07450667563063045  1.0000
  Cl  Cl42      1.0  0.14862358762438457  0.13052910303491172  0.42549332398097045  1.0000
  Cl  Cl43      1.0  0.648623588063576  0.36947089707297376  0.9254933243133436  1.0000
  Cl  Cl44      1.0  0.8513764122707344  0.8694708971808593  0.5745066759630036  1.0000
  Cl  Cl45      1.0  0.7838224219251857  0.04980128463676709  0.9830365355221471  1.0000
  Cl  Cl46      1.0  0.7161775774258609  0.5498012847446526  0.516963464033428  1.0000
  Cl  Cl47      1.0  0.21617757796993337  0.9501987155790039  0.016963464421827085  1.0000
  Cl  Cl48      1.0  0.28382242246925815  0.45019871547111845  0.4830365359105462  1.0000
