data_image0
_chemical_formula_structural       H52C80N12F16I8
_chemical_formula_sum              "H52 C80 N12 F16 I8"
_cell_length_a       9.145222751988744
_cell_length_b       13.876908387915538
_cell_length_c       17.49439116422102
_cell_angle_alpha    99.94931823331459
_cell_angle_beta     95.8097499666795
_cell_angle_gamma    107.18773854342615

_space_group_name_H-M_alt    "P 1"
_space_group_IT_number       1

loop_
  _space_group_symop_operation_xyz
  'x, y, z'

loop_
  _atom_site_type_symbol
  _atom_site_label
  _atom_site_symmetry_multiplicity
  _atom_site_fract_x
  _atom_site_fract_y
  _atom_site_fract_z
  _atom_site_occupancy
  H   H1        1.0  0.2426800855257238  0.27503154125160817  0.8999655560855111  1.0000
  H   H2        1.0  0.7573199142886577  0.7249684587140486  0.10003444391063207  1.0000
  H   H3        1.0  0.5108529499638295  0.3258132770623419  0.8610884761690456  1.0000
  H   H4        1.0  0.48914704985055196  0.6741867229033147  0.1389115238270975  1.0000
  H   H5        1.0  0.7360762364716191  0.4266031728593852  0.9699169798163947  1.0000
  H   H6        1.0  0.26392376334276235  0.5733968271062715  0.030083020179748496  1.0000
  H   H7        1.0  0.1404716438816952  0.40457367339060174  0.28025644797564625  1.0000
  H   H8        1.0  0.859528357026483  0.5954263265747118  0.7197435520230527  1.0000
  H   H9        1.0  0.11851243612404003  0.4640240831796573  0.41769705962531317  1.0000
  H   H10       1.0  0.881487565124084  0.5359759175401281  0.5823029403739755  1.0000
  H   H11       1.0  0.6060369483563618  0.6474873751699666  0.4633328193431915  1.0000
  H   H12       1.0  0.3939630514580195  0.35251262479569  0.5366671806529516  1.0000
  H   H13       1.0  0.6254089341256543  0.583966765652277  0.3263006843256463  1.0000
  H   H14       1.0  0.3745910667825238  0.41603323431303657  0.6736993156730527  1.0000
  H   H15       1.0  0.1110955461101129  0.5670638741755545  0.5368169828260323  1.0000
  H   H16       1.0  0.8889044537042685  0.43293612579010216  0.46318301717011084  1.0000
  H   H17       1.0  0.233727079569018  0.5733196027398199  0.6244621865005521  1.0000
  H   H18       1.0  0.7662729202453633  0.4266803972258368  0.37553781349559107  1.0000
  H   H19       1.0  0.18250317035368813  0.4621114775165575  0.5469743361422157  1.0000
  H   H20       1.0  0.8174968294606932  0.5378885224490991  0.45302566385392723  1.0000
  H   H21       1.0  0.5710317124883596  0.6408649762092578  0.5987223482827654  1.0000
  H   H22       1.0  0.4289682873260218  0.3591350237563989  0.40127765171337765  1.0000
  H   H23       1.0  0.4381159819770463  0.7026743524825435  0.6342093619228798  1.0000
  H   H24       1.0  0.561884017837335  0.297325647483113  0.3657906380732633  1.0000
  H   H25       1.0  0.5273897805037235  0.7379367121191567  0.5535080391325589  1.0000
  H   H26       1.0  0.4726102193106579  0.2620632878465  0.4464919608635842  1.0000
  H   H27       1.0  0.8122305439014267  0.7490510848137637  0.6206413877923467  1.0000
  H   H28       1.0  0.18776945625290045  0.25094891590636464  0.37935861220438594  1.0000
  H   H29       1.0  0.7276377957962059  0.7924396182314358  0.7527824378619875  1.0000
  H   H30       1.0  0.27236220401817557  0.2075603817342209  0.24721756213415555  1.0000
  H   H31       1.0  0.9350928470930082  0.9131807161216313  0.863194151526458  1.0000
  H   H32       1.0  0.06490715272137323  0.08681928384402535  0.13680584846968505  1.0000
  H   H33       1.0  0.6688982553342827  0.07507723509510748  0.8157119414668272  1.0000
  H   H34       1.0  0.33110174448009866  0.9249227648705493  0.18428805852931587  1.0000
  H   H35       1.0  0.9441172914088632  0.13694063291405445  0.8056650671724828  1.0000
  H   H36       1.0  0.05588270949931492  0.8630593670512592  0.19433493282621622  1.0000
  H   H37       1.0  0.8351490459941857  0.9871123020451903  0.5581341612916862  1.0000
  H   H38       1.0  0.16485095382019566  0.012887697920466344  0.4418658387044568  1.0000
  H   H39       1.0  0.5592383503690662  0.9281762539881504  0.5694454665704253  1.0000
  H   H40       1.0  0.4407616494453154  0.07182374597750635  0.4305545334257179  1.0000
  H   H41       1.0  0.16525499838058275  0.23920153493085422  0.7599806499671932  1.0000
  H   H42       1.0  0.8347450014337988  0.7607984650348025  0.24001935002894997  1.0000
  H   H43       1.0  0.2963513229807732  0.17295307118738304  0.7297394522504257  1.0000
  H   H44       1.0  0.703648677173554  0.8270469295327453  0.2702605477463069  1.0000
  H   H45       1.0  0.1704654367056056  0.1260511909745313  0.7948459963091872  1.0000
  H   H46       1.0  0.8295345631087757  0.8739488089911253  0.20515400368695585  1.0000
  H   H47       1.0  0.08070317984276759  0.9899666225905206  0.5777608274632459  1.0000
  H   H48       1.0  0.9192968199716138  0.010033377375136094  0.4222391725328972  1.0000
  H   H49       1.0  0.24865837798198642  0.09935137341444986  0.6121534066665807  1.0000
  H   H50       1.0  0.751341621832395  0.9006486265512068  0.38784659332956245  1.0000
  H   H51       1.0  0.08188813025527877  0.11270390048435039  0.5581230802681667  1.0000
  H   H52       1.0  0.9181118706528996  0.8872960994809633  0.4418769197305324  1.0000
  C   C1        1.0  0.7866946393587911  0.2384760113135267  0.07350027311372549  1.0000
  C   C2        1.0  0.2133053604555904  0.7615239886521301  0.9264997268824177  1.0000
  C   C3        1.0  0.6664926564468897  0.1849623280541727  0.010997795860408709  1.0000
  C   C4        1.0  0.33350734336749177  0.8150376719114839  0.9890022041357345  1.0000
  C   C5        1.0  0.5108859514672688  0.14723327868126856  0.019421260302744915  1.0000
  C   C6        1.0  0.48911404834711264  0.8527667212843882  0.9805787396933981  1.0000
  C   C7        1.0  0.476059898330583  0.16743622035215086  0.0950414900400549  1.0000
  C   C8        1.0  0.5239401014837984  0.8325637796135058  0.9049585099560882  1.0000
  C   C9        1.0  0.5914442467855899  0.22167473592681516  0.1592669939612792  1.0000
  C   C10       1.0  0.4085557532114058  0.7783252642027395  0.8407330066229499  1.0000
  C   C11       1.0  0.745710823920782  0.255242702432394  0.14813642561763893  1.0000
  C   C12       1.0  0.2542891758935994  0.7447572975332627  0.8518635743785041  1.0000
  C   C13       1.0  0.3462948758873767  0.31800618775723183  0.94301832006132  1.0000
  C   C14       1.0  0.6537051242669505  0.6819938129628965  0.05698167993541268  1.0000
  C   C15       1.0  0.49326866152370696  0.3459267000679943  0.9214434688475075  1.0000
  C   C16       1.0  0.5067313382906744  0.6540732998976623  0.07855653114863559  1.0000
  C   C17       1.0  0.6170161821403932  0.4013540856326809  0.9815033918032449  1.0000
  C   C18       1.0  0.3829838176739882  0.5986459143329758  0.018496608192898216  1.0000
  C   C19       1.0  0.4500313399807061  0.3972673676389786  0.07184401450108484  1.0000
  C   C20       1.0  0.5499686598336754  0.6027326323266781  0.9281559854950583  1.0000
  C   C21       1.0  0.4262898920567754  0.4257104734267322  0.14961352740654796  1.0000
  C   C22       1.0  0.5737101077576061  0.5742895265389246  0.8503864725895952  1.0000
  C   C23       1.0  0.4027640329087602  0.4534830557987778  0.21612052039459542  1.0000
  C   C24       1.0  0.5972359669056212  0.5465169441668789  0.7838794796015476  1.0000
  C   C25       1.0  0.3854485487554307  0.4886707769138739  0.2936141386236704  1.0000
  C   C26       1.0  0.6145514510589508  0.5113292230517827  0.7063858613724727  1.0000
  C   C27       1.0  0.24227879986764322  0.4566293625131395  0.32103279442333743  1.0000
  C   C28       1.0  0.7577211999467383  0.5433706374525172  0.6789672055728057  1.0000
  C   C29       1.0  0.23037694494755456  0.4904670895066521  0.39855085909038757  1.0000
  C   C30       1.0  0.7696230548668269  0.5095329104590046  0.6014491409057555  1.0000
  C   C31       1.0  0.3606122214364504  0.5606696764196997  0.45249940840393554  1.0000
  C   C32       1.0  0.6393877783779311  0.4393303235459571  0.5475005915922077  1.0000
  C   C33       1.0  0.5033817854291612  0.5942867730091415  0.42403889507632186  1.0000
  C   C34       1.0  0.49661821438522025  0.40571322695651524  0.5759611049198212  1.0000
  C   C35       1.0  0.5149794631986526  0.5585644820366533  0.34702982415797956  1.0000
  C   C36       1.0  0.4850205366157288  0.4414355179290033  0.6529701758381635  1.0000
  C   C37       1.0  0.21158367974718667  0.5465993593287757  0.5604729366491764  1.0000
  C   C38       1.0  0.7884163200671948  0.45340064063688107  0.4395270633469666  1.0000
  C   C39       1.0  0.4788268295707092  0.6728892785028633  0.5813326401315602  1.0000
  C   C40       1.0  0.5211731702436723  0.3271107214627934  0.41866735986458303  1.0000
  C   C41       1.0  0.04277696943344962  0.6369782553582638  0.2601475049952731  1.0000
  C   C42       1.0  0.9572230314747286  0.3630217446070499  0.7398524950034259  1.0000
  C   C43       1.0  0.02915345686088452  0.673711511987543  0.3376042148727622  1.0000
  C   C44       1.0  0.9708465429534971  0.3262884879781138  0.6623957851233809  1.0000
  C   C45       1.0  0.1543495775520603  0.7328926826323281  0.3959452348054164  1.0000
  C   C46       1.0  0.845650422262321  0.26710731733332854  0.6040547651907267  1.0000
  C   C47       1.0  0.300905615428178  0.7577788767659632  0.3739337147701111  1.0000
  C   C48       1.0  0.6990943843862034  0.24222112319969344  0.626066285226032  1.0000
  C   C49       1.0  0.32018970949980774  0.7239442243004497  0.29709308004304114  1.0000
  C   C50       1.0  0.6798102914083703  0.27605577566486383  0.7029069199556578  1.0000
  C   C51       1.0  0.1917997649272434  0.6636955956516817  0.2412880355071364  1.0000
  C   C52       1.0  0.808200234887138  0.336304404313975  0.7587119644890067  1.0000
  C   C53       1.0  0.8941123265974777  0.7993391518778045  0.671909345053958  1.0000
  C   C54       1.0  0.10588767321690377  0.20066084808785223  0.328090654942185  1.0000
  C   C55       1.0  0.8471619923764735  0.822935822791571  0.7441144225200718  1.0000
  C   C56       1.0  0.15283800743790804  0.17706417717408574  0.25588557747607144  1.0000
  C   C57       1.0  0.9618696840636881  0.8893472882882548  0.8049437809030504  1.0000
  C   C58       1.0  0.03813031575069349  0.1106527116774019  0.1950562190930927  1.0000
  C   C59       1.0  0.1462795858248586  0.8985581033267167  0.7235569992774067  1.0000
  C   C60       1.0  0.8537204150833198  0.1014418966385971  0.2764430007212924  1.0000
  C   C61       1.0  0.30180566289419347  0.9352934639883497  0.7126633593977854  1.0000
  C   C62       1.0  0.6981943369201881  0.06470653597730706  0.2873366405983578  1.0000
  C   C63       1.0  0.4367220366273093  0.9629474888494873  0.7018594668189984  1.0000
  C   C64       1.0  0.5632779631870721  0.03705251111616936  0.2981405331771448  1.0000
  C   C65       1.0  0.5936449906172835  0.9961355095977842  0.6937601853996814  1.0000
  C   C66       1.0  0.406355009197098  0.0038644903678725574  0.30623981459646166  1.0000
  C   C67       1.0  0.7063727062798651  0.055912507655889516  0.7596037597917599  1.0000
  C   C68       1.0  0.29362729353451633  0.9440874923097671  0.24039624020438316  1.0000
  C   C69       1.0  0.8617729151648359  0.09035585448142126  0.7536922970419913  1.0000
  C   C70       1.0  0.13822708464954556  0.9096441454842354  0.24630770295415183  1.0000
  C   C71       1.0  0.9139236594077844  0.06542420518963077  0.6812359514796443  1.0000
  C   C72       1.0  0.08607634040659677  0.9345757947760258  0.3187640485164987  1.0000
  C   C73       1.0  0.8002649263019721  0.005856150135931374  0.6149637919970196  1.0000
  C   C74       1.0  0.19973507351240935  0.9941438498297253  0.38503620799912347  1.0000
  C   C75       1.0  0.6446160166795538  0.9724728549227585  0.6212056013171233  1.0000
  C   C76       1.0  0.3553839831348276  0.027527145042898146  0.3787943986790199  1.0000
  C   C77       1.0  0.18000674187120302  0.16261581920418855  0.7437715115572077  1.0000
  C   C78       1.0  0.8199932579431783  0.837384180761468  0.25622848843893553  1.0000
  C   C79       1.0  0.12176069159202249  0.07373906371592855  0.6019166142648785  1.0000
  C   C80       1.0  0.8782393085623045  0.9262609370041998  0.39808338573185403  1.0000
  N   N1        1.0  0.3233585019856817  0.34280909384347585  0.017012064270896268  1.0000
  N   N2        1.0  0.6766414978286998  0.6571909061221808  0.9829879357252469  1.0000
  N   N3        1.0  0.5972266823839191  0.42736732573502667  0.05612192653253895  1.0000
  N   N4        1.0  0.40277331743046235  0.57263267423063  0.9438780734636041  1.0000
  N   N5        1.0  0.34874845016892975  0.5950053591877212  0.5286758221718233  1.0000
  N   N6        1.0  0.6512515496454517  0.40499464077793546  0.47132417782431985  1.0000
  N   N7        1.0  0.04127368949116671  0.8356893564789352  0.660960731477133  1.0000
  N   N8        1.0  0.9587263114170116  0.16431064348637844  0.339039268521566  1.0000
  N   N9        1.0  0.10973479005880703  0.9273820490296777  0.7955349750972524  1.0000
  N   N10       1.0  0.8902652097555747  0.07261795093597906  0.20446502489889076  1.0000
  N   N11       1.0  0.06795747409490632  0.0976310002510922  0.6760486953505912  1.0000
  N   N12       1.0  0.9320425257194751  0.9023689997145644  0.3239513046455519  1.0000
  F   F1        1.0  0.7038165407942741  0.16687743347953443  0.9377507106077206  1.0000
  F   F2        1.0  0.2961834590201073  0.8331225664861223  0.062249289388422537  1.0000
  F   F3        1.0  0.328026804591834  0.13335685650334045  0.10833365779027151  1.0000
  F   F4        1.0  0.6719731952225475  0.8666431434623162  0.8916663422058715  1.0000
  F   F5        1.0  0.5535597595740042  0.24135204434002103  0.2319498228657942  1.0000
  F   F6        1.0  0.4464402413341741  0.7586479556252926  0.7680501771329048  1.0000
  F   F7        1.0  0.8552803599473132  0.30428951471874  0.21248880173240486  1.0000
  F   F8        1.0  0.1447196398670683  0.6957104852469167  0.7875111982637383  1.0000
  F   F9        1.0  0.8843809427560212  0.6508530813153919  0.3576819423265463  1.0000
  F   F10       1.0  0.11561905705836022  0.349146918650265  0.6423180576695967  1.0000
  F   F11       1.0  0.42877524097547465  0.8157143044485305  0.4268287348281684  1.0000
  F   F12       1.0  0.5712247588389068  0.18428569551712617  0.5731712651679747  1.0000
  F   F13       1.0  0.4630998346214522  0.7495342541952953  0.27622925609896326  1.0000
  F   F14       1.0  0.5369001651929293  0.2504657457703614  0.7237707438971799  1.0000
  F   F15       1.0  0.21548615804874718  0.6323067473643875  0.16730282352513923  1.0000
  F   F16       1.0  0.7845138417656342  0.36769325260126917  0.8326971764710038  1.0000
  I   I1        1.0  0.02008518814114749  0.2883972876883384  0.05476207892439675  1.0000
  I   I2        1.0  0.979914811673234  0.7116027122773183  0.9452379210717464  1.0000
  I   I3        1.0  0.33793041542499763  0.05605489246012048  0.9234509847045781  1.0000
  I   I4        1.0  0.6620695843893838  0.9439451075055362  0.07654901529156495  1.0000
  I   I5        1.0  0.8492186384461148  0.5454783665662377  0.17400007705290188  1.0000
  I   I6        1.0  0.15078136136826656  0.4545216333994189  0.8259999229432412  1.0000
  I   I7        1.0  0.12123913501895126  0.7812347248703517  0.5127846845420811  1.0000
  I   I8        1.0  0.8787608647954301  0.21876527509530502  0.4872153154540619  1.0000
