data_image0
_chemical_formula_structural       H52C80N12F16I8
_chemical_formula_sum              "H52 C80 N12 F16 I8"
_cell_length_a       9.00221449481267
_cell_length_b       26.525350012204864
_cell_length_c       9.537188631285206
_cell_angle_alpha    90.0
_cell_angle_beta     112.64553689278354
_cell_angle_gamma    90.0

_space_group_name_H-M_alt    "P 1"
_space_group_IT_number       1

loop_
  _space_group_symop_operation_xyz
  'x, y, z'

loop_
  _atom_site_type_symbol
  _atom_site_label
  _atom_site_symmetry_multiplicity
  _atom_site_fract_x
  _atom_site_fract_y
  _atom_site_fract_z
  _atom_site_occupancy
  H   H1        1.0  0.1272297560683823  0.698635878187215  0.03883499675398288  1.0000
  H   H2        1.0  0.8727702434343318  0.19863587841727537  0.4611650026279905  1.0000
  H   H3        1.0  0.8727702434524823  0.30136412172966204  0.961165003197741  1.0000
  H   H4        1.0  0.1272297560865328  0.8013641214996016  0.5388349973237334  1.0000
  H   H5        1.0  0.9914475378580253  0.6206779202696556  0.08793819799374933  1.0000
  H   H6        1.0  0.008552461644688831  0.12067792012271815  0.41206180138822407  1.0000
  H   H7        1.0  0.008552461662839348  0.3793220796472214  0.9120618019579746  1.0000
  H   H8        1.0  0.9914475389892872  0.8793220797941589  0.5879381985691069  1.0000
  H   H9        1.0  0.0686009067840453  0.5370919570691759  0.008978944035085994  1.0000
  H   H10       1.0  0.9313990931766143  0.0370919572992363  0.49102105648299005  1.0000
  H   H11       1.0  0.9313990927368193  0.4629080428477011  0.991021055916638  1.0000
  H   H12       1.0  0.06860090745736189  0.9629080426176406  0.5089789434743409  1.0000
  H   H13       1.0  0.6606384152286865  0.5300960324191857  0.7046208278995517  1.0000
  H   H14       1.0  0.33936158542344014  0.030096032272248316  0.7953791726275299  1.0000
  H   H15       1.0  0.33936158429217816  0.4699039678746891  0.29537917205217223  1.0000
  H   H16       1.0  0.6606384152105359  0.9699039676446287  0.20462082732980116  1.0000
  H   H17       1.0  0.8730935336769703  0.5368098812437275  0.6042384295679705  1.0000
  H   H18       1.0  0.12690646697515626  0.036809881096790065  0.895761570959111  1.0000
  H   H19       1.0  0.12690646695700578  0.4631901190501474  0.3957615703893606  1.0000
  H   H20       1.0  0.8730935341167652  0.9631901188200869  0.10423843013432257  1.0000
  H   H21       1.0  0.8733142897332344  0.6995674730573535  0.6568725639093133  1.0000
  H   H22       1.0  0.12668571091889216  0.19956747328741395  0.8431274366177685  1.0000
  H   H23       1.0  0.1266857097876302  0.3004325268595235  0.3431274360424108  1.0000
  H   H24       1.0  0.873314289715084  0.800432527006461  0.15687256333956265  1.0000
  H   H25       1.0  0.6615806473578696  0.6913060224111162  0.7564701968381923  1.0000
  H   H26       1.0  0.3384193532942569  0.1913060222641788  0.7435298036888891  1.0000
  H   H27       1.0  0.3384193532761064  0.3086939775057608  0.2435298031191386  1.0000
  H   H28       1.0  0.6615806473397192  0.8086939776526982  0.25647019626844186  1.0000
  H   H29       1.0  0.12336337776327877  0.5511363202850652  0.6170955466039731  1.0000
  H   H30       1.0  0.876636621317791  0.051136320138127786  0.8829044527813985  1.0000
  H   H31       1.0  0.8766366217575858  0.4488636796318118  0.3829044533477507  1.0000
  H   H32       1.0  0.12336337820307364  0.9488636797787492  0.11709554717032535  1.0000
  H   H33       1.0  0.17424444088503402  0.5891641129262886  0.48982381932796215  1.0000
  H   H34       1.0  0.8257555590756255  0.08916411277935121  0.010176181190113903  1.0000
  H   H35       1.0  0.8257555590937761  0.4108358873675862  0.5101761817598646  1.0000
  H   H36       1.0  0.17424444044523923  0.9108358871375258  0.9898238187616102  1.0000
  H   H37       1.0  0.9824922212923503  0.559217460021256  0.4261866892382672  1.0000
  H   H38       1.0  0.017507779781420617  0.05921745987431867  0.0738133112854159  1.0000
  H   H39       1.0  0.017507779341625763  0.4407825398956209  0.5738133107190638  1.0000
  H   H40       1.0  0.9824922208525555  0.9407825400425583  0.926186688671915  1.0000
  H   H41       1.0  0.9797158305380186  0.695455492632974  0.46726013438998726  1.0000
  H   H42       1.0  0.020284169422641034  0.19545549248603664  0.032739866128088754  1.0000
  H   H43       1.0  0.020284168982846164  0.304544507283903  0.5327398655617366  1.0000
  H   H44       1.0  0.9797158300982236  0.8045445074308404  0.9672601338236353  1.0000
  H   H45       1.0  0.17342719537736584  0.66793173292145  0.5159224462206947  1.0000
  H   H46       1.0  0.8265728048168154  0.16793173277451254  0.9840775531702843  1.0000
  H   H47       1.0  0.8265728052566104  0.332068266995427  0.4840775537366364  1.0000
  H   H48       1.0  0.17342719470404921  0.8320682671423644  0.0159224467814397  1.0000
  H   H49       1.0  0.11816391844098156  0.692897638732129  0.6608545863988418  1.0000
  H   H50       1.0  0.8818360810980337  0.1928976389621894  0.8391454141226327  1.0000
  H   H51       1.0  0.8818360810798831  0.30710236118474804  0.33914541355288214  1.0000
  H   H52       1.0  0.11816391842283107  0.8071023613316856  0.1608545858290913  1.0000
  C   C1        1.0  0.5129777055128301  0.8152842085043012  0.828657619348392  1.0000
  C   C2        1.0  0.48702229468135105  0.3152842087343616  0.6713423800425868  1.0000
  C   C3        1.0  0.4870222951211459  0.18471579141257585  0.171342380608939  1.0000
  C   C4        1.0  0.5129777048395135  0.6847157911825154  0.32865761990913706  1.0000
  C   C5        1.0  0.6371012079035854  0.8157642673911449  0.7753259706872618  1.0000
  C   C6        1.0  0.36289879163542976  0.31576426724420753  0.7246740298342126  1.0000
  C   C7        1.0  0.36289879161727917  0.18423573290272996  0.2246740292644621  1.0000
  C   C8        1.0  0.6371012078854349  0.6842357326726695  0.27532597011751136  1.0000
  C   C9        1.0  0.6886069265660754  0.8603866105253689  0.7315335302882644  1.0000
  C   C10       1.0  0.31139307297293983  0.3603866107554294  0.7684664702332101  1.0000
  C   C11       1.0  0.3113930729547893  0.13961338939150802  0.26846646966345955  1.0000
  C   C12       1.0  0.6886069265479249  0.6396133891614476  0.23153352971851382  1.0000
  C   C13       1.0  0.6212830619285495  0.9067970013188389  0.7419538102918777  1.0000
  C   C14       1.0  0.3787169376104656  0.40679700117190143  0.7580461902295969  1.0000
  C   C15       1.0  0.37871693759231506  0.09320299897503595  0.2580461896598462  1.0000
  C   C16       1.0  0.6212830619103992  0.5932029987449755  0.24195380972212716  1.0000
  C   C17       1.0  0.5005011745975457  0.906524980780121  0.7996478329471038  1.0000
  C   C18       1.0  0.4994988255966355  0.4065249806331836  0.700352166443875  1.0000
  C   C19       1.0  0.4994988249233188  0.09347501951375381  0.2003521670046201  1.0000
  C   C20       1.0  0.5005011750373406  0.5934750192836934  0.299647833513456  1.0000
  C   C21       1.0  0.4473454158782804  0.8618345861404817  0.8410767467680325  1.0000
  C   C22       1.0  0.5526545843159009  0.361834586370542  0.6589232526229465  1.0000
  C   C23       1.0  0.5526545836425841  0.13816541377639538  0.1589232531836915  1.0000
  C   C24       1.0  0.4473454163180753  0.638165413546335  0.34107674733438453  1.0000
  C   C25       1.0  0.1549033275238658  0.6610076429503283  0.008866771902675015  1.0000
  C   C26       1.0  0.8450966719788483  0.16100764280339086  0.49113322747929844  1.0000
  C   C27       1.0  0.8450966719969989  0.3389923569665487  0.9911332280490489  1.0000
  C   C28       1.0  0.15490332754201633  0.8389923571134861  0.5088667724724256  1.0000
  C   C29       1.0  0.0801051165819631  0.618288985911736  0.03681960564105207  1.0000
  C   C30       1.0  0.9198948840338624  0.11828898614179638  0.4631803937465284  1.0000
  C   C31       1.0  0.9198948840520129  0.38171101400514107  0.9631803943162791  1.0000
  C   C32       1.0  0.0801051166001137  0.8817110141520784  0.5368196062108027  1.0000
  C   C33       1.0  0.12272575650422972  0.5722885697272719  0.9925963261133777  1.0000
  C   C34       1.0  0.8772742430347855  0.07228856958033457  0.5074036744080969  1.0000
  C   C35       1.0  0.877274243016635  0.427711430189605  0.007403673838346307  1.0000
  C   C36       1.0  0.12272575648607915  0.9277114303365425  0.49259632554362703  1.0000
  C   C37       1.0  0.29995171943332655  0.6119331033344116  0.9079031544772841  1.0000
  C   C38       1.0  0.7000482801056886  0.11193310318747429  0.5920968460441904  1.0000
  C   C39       1.0  0.7000482800875382  0.38806689658246524  0.09209684547443982  1.0000
  C   C40       1.0  0.299951719415176  0.8880668967294028  0.40790315390753357  1.0000
  C   C41       1.0  0.4169744070099117  0.6089965166366241  0.8444011043197938  1.0000
  C   C42       1.0  0.5830255925291036  0.10899651648968674  0.6555988962016808  1.0000
  C   C43       1.0  0.583025592510953  0.3910034832802528  0.15559889563193027  1.0000
  C   C44       1.0  0.4169744069917611  0.8910034834271903  0.3444011037500432  1.0000
  C   C45       1.0  0.5237057330350281  0.6080431618274185  0.7949128967484246  1.0000
  C   C46       1.0  0.47629426715915313  0.10804316168048103  0.7050871026425544  1.0000
  C   C47       1.0  0.47629426759894794  0.3919568380894585  0.20508710320890644  1.0000
  C   C48       1.0  0.523705733474823  0.8919568382363959  0.29491289731477666  1.0000
  C   C49       1.0  0.646634072499663  0.6102702981318524  0.7392128109851958  1.0000
  C   C50       1.0  0.35336592815246365  0.11027029798491503  0.760787189541886  1.0000
  C   C51       1.0  0.3533659281343131  0.3897297017850246  0.2607871889721353  1.0000
  C   C52       1.0  0.646634071368401  0.889729701931962  0.23921281040983805  1.0000
  C   C53       1.0  0.7091551706614942  0.5669174421103151  0.6951622196825782  1.0000
  C   C54       1.0  0.29084482953268687  0.06691744234037558  0.8048377797084005  1.0000
  C   C55       1.0  0.2908448288593703  0.43308255780656185  0.3048377802691457  1.0000
  C   C56       1.0  0.7091551711012891  0.9330825575765014  0.1951622202489304  1.0000
  C   C57       1.0  0.8289715419768225  0.5708982095630128  0.63868238507691  1.0000
  C   C58       1.0  0.1710284575621926  0.07089820979307329  0.8613176154445643  1.0000
  C   C59       1.0  0.17102845754404208  0.4291017903538641  0.3613176148748138  1.0000
  C   C60       1.0  0.8289715419586721  0.9291017901238037  0.13868238450715958  1.0000
  C   C61       1.0  0.8934621192947403  0.6187111409443687  0.6238279872275412  1.0000
  C   C62       1.0  0.10653787978632955  0.11871114117442924  0.8761720121578307  1.0000
  C   C63       1.0  0.10653788022612441  0.3812888589725082  0.3761720127241828  1.0000
  C   C64       1.0  0.893462119734535  0.8812888591194457  0.12382798779389327  1.0000
  C   C65       1.0  0.8294231473616768  0.6621688076469611  0.6678353529147787  1.0000
  C   C66       1.0  0.17057685217733826  0.16216880750002363  0.8321646476066956  1.0000
  C   C67       1.0  0.17057685215918778  0.3378311926469138  0.33216464703694515  1.0000
  C   C68       1.0  0.8294231473435264  0.8378311924168533  0.16783535234502825  1.0000
  C   C69       1.0  0.70997548127006  0.6577644653877168  0.724098752811792  1.0000
  C   C70       1.0  0.2900245193820666  0.15776446561777716  0.7759012477152896  1.0000
  C   C71       1.0  0.2900245182508046  0.3422355345291603  0.2759012471399319  1.0000
  C   C72       1.0  0.7099754812519096  0.8422355346760977  0.22409875224204148  1.0000
  C   C73       1.0  0.07559467433937467  0.5782644603348254  0.5230471949777723  1.0000
  C   C74       1.0  0.924405326312752  0.07826446056488576  0.9769528055493093  1.0000
  C   C75       1.0  0.9244053262946015  0.4217355395820517  0.47695280497955883  1.0000
  C   C76       1.0  0.0755946743212241  0.9217355393519913  0.023047194408021682  1.0000
  C   C77       1.0  0.07314875850020258  0.6723603666603432  0.5522379734779227  1.0000
  C   C78       1.0  0.926851242151924  0.17236036689040352  0.9477620270491591  1.0000
  C   C79       1.0  0.9268512410206621  0.3276396332565339  0.44776202647380137  1.0000
  C   C80       1.0  0.07314875848205202  0.8276396334034712  0.05223797290817204  1.0000
  N   N1        1.0  0.26392188618154344  0.658580727566728  0.9456840937114612  1.0000
  N   N2        1.0  0.7360781140126378  0.15858072741979062  0.5543159056795178  1.0000
  N   N3        1.0  0.7360781133393213  0.34141927235014896  0.054315906240262855  1.0000
  N   N4        1.0  0.26392188662133825  0.8414192724970864  0.44568409427781325  1.0000
  N   N5        1.0  0.23092972510320756  0.5684661511747044  0.9287852255742937  1.0000
  N   N6        1.0  0.7690702750909738  0.06846615102776701  0.5712147738166854  1.0000
  N   N7        1.0  0.7690702755307686  0.43153384874217254  0.07121477438303742  1.0000
  N   N8        1.0  0.23092972442989096  0.9315338488891101  0.42878522613503867  1.0000
  N   N9        1.0  0.012482406735844396  0.6229160181636583  0.5693520938909736  1.0000
  N   N10       1.0  0.9875175928031708  0.12291601801672085  0.930647906630501  1.0000
  N   N11       1.0  0.9875175927850203  0.3770839817532187  0.4306479060607504  1.0000
  N   N12       1.0  0.012482406717693881  0.8770839819001561  0.06935209332122304  1.0000
  F   F1        1.0  0.7133824641399953  0.772440901649647  0.7664573372176882  1.0000
  F   F2        1.0  0.28661753651213134  0.2724409015027095  0.7335426633093936  1.0000
  F   F3        1.0  0.2866175364939808  0.2275590982672301  0.23354266273964291  1.0000
  F   F4        1.0  0.7133824634666787  0.7275590984141675  0.2664573377784331  1.0000
  F   F5        1.0  0.8090238424885491  0.8576295747099565  0.6791922060246227  1.0000
  F   F6        1.0  0.1909761565925207  0.35762957494001696  0.820807793360749  1.0000
  F   F7        1.0  0.19097615703231555  0.14237042520692048  0.32080779392710124  1.0000
  F   F8        1.0  0.8090238429283441  0.6423704253538579  0.17919220659097487  1.0000
  F   F9        1.0  0.4299705229054141  0.950196360025522  0.8153874700695175  1.0000
  F   F10       1.0  0.5700294777467124  0.4501963598785846  0.6846125304575639  1.0000
  F   F11       1.0  0.5700294766154506  0.049803639891355  0.1846125298822064  1.0000
  F   F12       1.0  0.4299705228872635  0.5498036400382924  0.31538746949976704  1.0000
  F   F13       1.0  0.3268211100227334  0.8644694625876479  0.8931538443099156  1.0000
  F   F14       1.0  0.6731788906293933  0.36446946281770826  0.606846156217166  1.0000
  F   F15       1.0  0.6731788906112427  0.13553053732922912  0.10684615564741536  1.0000
  F   F16       1.0  0.3268211088914714  0.6355305370991687  0.39315384373455803  1.0000
  I   I1        1.0  0.4210471306113962  0.7482037779282186  0.8831514183313866  1.0000
  I   I2        1.0  0.5789528684696736  0.24820377778128114  0.6168485810539853  1.0000
  I   I3        1.0  0.5789528689094685  0.2517962223656563  0.11684858162033744  1.0000
  I   I4        1.0  0.421047131051191  0.7517962221355959  0.38315141889773857  1.0000
  I   I5        1.0  0.6912970890050273  0.9745386876367658  0.669437704907971  1.0000
  I   I6        1.0  0.3087029105339879  0.47453868748982836  0.8305622956135036  1.0000
  I   I7        1.0  0.3087029105158373  0.02546131265710907  0.33056229504375295  1.0000
  I   I8        1.0  0.6912970889868767  0.5254613124270486  0.16943770433822045  1.0000
