data_image0
_chemical_formula_structural       H12C16N6O4S8Cl2
_chemical_formula_sum              "H12 C16 N6 O4 S8 Cl2"
_cell_length_a       8.247989839029534
_cell_length_b       9.030131110682621
_cell_length_c       9.77630090804281
_cell_angle_alpha    112.42549220858899
_cell_angle_beta     96.4370470199658
_cell_angle_gamma    100.17897348946249

_space_group_name_H-M_alt    "P 1"
_space_group_IT_number       1

loop_
  _space_group_symop_operation_xyz
  'x, y, z'

loop_
  _atom_site_type_symbol
  _atom_site_label
  _atom_site_symmetry_multiplicity
  _atom_site_fract_x
  _atom_site_fract_y
  _atom_site_fract_z
  _atom_site_occupancy
  H   H1        1.0  0.8361875240581531  0.4610348584342045  0.9400727178134123  1.0000
  H   H2        1.0  0.16381247594137796  0.5389651422824077  0.059927283289724145  1.0000
  H   H3        1.0  0.8162278067483169  0.2577804684042138  0.9385845082121156  1.0000
  H   H4        1.0  0.1837721942071354  0.7422195318037138  0.06141549175560574  1.0000
  H   H5        1.0  0.7619109950265125  0.41838489732833084  0.09122130135769749  1.0000
  H   H6        1.0  0.23808900450170578  0.5816151017565084  0.9087786986175418  1.0000
  H   H7        1.0  0.33699416558709455  0.10939752703492589  0.882929269507003  1.0000
  H   H8        1.0  0.6630058344124364  0.8906024736816862  0.11707073159613336  1.0000
  H   H9        1.0  0.4868259130886531  0.22117194909993734  0.05834117928552531  1.0000
  H   H10       1.0  0.5131740864395651  0.7788280499849021  0.9416588206897142  1.0000
  H   H11       1.0  0.5411385684283054  0.0621868954356482  0.904708902562313  1.0000
  H   H12       1.0  0.4588614313159585  0.9378131047739258  0.09529109741208672  1.0000
  C   C1        1.0  0.21631348470035483  0.2238927072472084  0.2772257053657619  1.0000
  C   C2        1.0  0.7836865148278633  0.7761072918376309  0.7227742946094775  1.0000
  C   C3        1.0  0.24883416452493692  0.3704123612791381  0.41578782530904307  1.0000
  C   C4        1.0  0.7511658352193269  0.6295876389304358  0.5842121746653566  1.0000
  C   C5        1.0  0.19781145156728985  0.5184429243431065  0.4404736005543611  1.0000
  C   C6        1.0  0.8021885493881625  0.4815570758648212  0.5595263994133602  1.0000
  C   C7        1.0  0.0790265257243179  0.6988377459232483  0.3929157499812803  1.0000
  C   C8        1.0  0.9209734740199459  0.30116225428632565  0.6070842499931193  1.0000
  C   C9        1.0  0.2507672075725849  0.6530100936831769  0.5897784577363635  1.0000
  C   C10       1.0  0.7492327933828675  0.34698990652475087  0.4102215422313579  1.0000
  C   C11       1.0  0.9871524997654769  0.7619692546601997  0.3064315530696656  1.0000
  C   C12       1.0  0.012847499978786717  0.2380307455493742  0.693568446904734  1.0000
  C   C13       1.0  0.7649885386941813  0.36762755291578764  0.9704764580531305  1.0000
  C   C14       1.0  0.23501146226127104  0.6323724472921399  0.02952354191459085  1.0000
  C   C15       1.0  0.4703966148351217  0.15815248352499559  0.9353641891546808  1.0000
  C   C16       1.0  0.5296033849091422  0.8418475166845784  0.06463581081971882  1.0000
  N   N1        1.0  0.27230462672281963  0.09615695853795034  0.27560089578375846  1.0000
  N   N2        1.0  0.7276953728053985  0.903843040546889  0.724399104191481  1.0000
  N   N3        1.0  0.10278033825663871  0.5486791092475323  0.3352735309786097  1.0000
  N   N4        1.0  0.8972196626988137  0.4513208909603954  0.6647264689891117  1.0000
  N   N5        1.0  0.9113306837957297  0.8153576362364382  0.23541815812093503  1.0000
  N   N6        1.0  0.08866931715972273  0.18464236397148945  0.7645818418467862  1.0000
  O   O1        1.0  0.3391681691452295  0.6524413010855993  0.7011613496749443  1.0000
  O   O2        1.0  0.6608318305990343  0.3475586991239746  0.2988386502994553  1.0000
  O   O3        1.0  0.5630357931406479  0.20888885469901242  0.7019204411837712  1.0000
  O   O4        1.0  0.43696420638757033  0.7911111443858269  0.2980795587914682  1.0000
  S   S1        1.0  0.36792663209505116  0.35343619290291745  0.5636808923657171  1.0000
  S   S2        1.0  0.6320733676492126  0.6465638073066564  0.43631910760868253  1.0000
  S   S3        1.0  0.37748261920787707  0.11313148089228506  0.43319072120032515  1.0000
  S   S4        1.0  0.6225173805363867  0.8868685193172889  0.5668092787740745  1.0000
  S   S5        1.0  0.16917989055542373  0.8213929069727978  0.5839346600768628  1.0000
  S   S6        1.0  0.8308201091888401  0.17860709323677626  0.41606533989753686  1.0000
  S   S7        1.0  0.553301651949575  0.30715789172393887  0.86573938082274  1.0000
  S   S8        1.0  0.4466983490058773  0.6928421084839886  0.13426061914498122  1.0000
  Cl  Cl1       1.0  0.10902459033123574  0.20970733094002975  0.11069102435580158  1.0000
  Cl  Cl2       1.0  0.8909754106242167  0.7902926692678978  0.8893089756119198  1.0000
