data_image0
_chemical_formula_structural       H20C28N4O12Cl12
_chemical_formula_sum              "H20 C28 N4 O12 Cl12"
_cell_length_a       11.255912651195567
_cell_length_b       8.9982917216443
_cell_length_c       10.59552902510772
_cell_angle_alpha    90.0
_cell_angle_beta     110.64695279452143
_cell_angle_gamma    90.0

_space_group_name_H-M_alt    "P 1"
_space_group_IT_number       1

loop_
  _space_group_symop_operation_xyz
  'x, y, z'

loop_
  _atom_site_type_symbol
  _atom_site_label
  _atom_site_symmetry_multiplicity
  _atom_site_fract_x
  _atom_site_fract_y
  _atom_site_fract_z
  _atom_site_occupancy
  H   H1        1.0  0.5037999059162857  0.2244462162903675  0.030785994137248963  1.0000
  H   H2        1.0  0.496200094664638  0.7244462161990001  0.4692140062653151  1.0000
  H   H3        1.0  0.49620009416633026  0.7755537846382199  0.9692140060933532  1.0000
  H   H4        1.0  0.503799905417978  0.27555378361826516  0.530785993965287  1.0000
  H   H5        1.0  0.6319734008464447  0.37192123388820847  0.9190906953707454  1.0000
  H   H6        1.0  0.36802659963366735  0.871921233796841  0.5809093047108265  1.0000
  H   H7        1.0  0.36802659923617126  0.6280787659290569  0.08090930485985677  1.0000
  H   H8        1.0  0.6319734004489486  0.12807876602042417  0.41909069551977557  1.0000
  H   H9        1.0  0.759475247186824  0.5879550545437557  0.038863140426238084  1.0000
  H   H10       1.0  0.24052475218381517  0.08795505463512307  0.46113685894508094  1.0000
  H   H11       1.0  0.24052475258131126  0.41204494527350954  0.9611368587960507  1.0000
  H   H12       1.0  0.7594752478988007  0.9120449462934643  0.5388631412855213  1.0000
  H   H13       1.0  0.7675873934824275  0.6469745691836917  0.2766323287863926  1.0000
  H   H14       1.0  0.23241260620269227  0.146974569275059  0.22336767159323978  1.0000
  H   H15       1.0  0.23241260660018837  0.3530254317448957  0.7233676714442095  1.0000
  H   H16       1.0  0.7675873938799236  0.8530254316535284  0.7766323286373623  1.0000
  H   H17       1.0  0.6348318980992684  0.4932313162646587  0.37494046449337787  1.0000
  H   H18       1.0  0.36516810158585145  0.9932313161732912  0.1250595358862545  1.0000
  H   H19       1.0  0.3651681010875437  0.5067686846639287  0.6250595357142926  1.0000
  H   H20       1.0  0.6348318984967646  0.0067686847552960025  0.8749404643443477  1.0000
  C   C1        1.0  0.14914974765194883  0.5145303612310491  0.27027389545693153  1.0000
  C   C2        1.0  0.8508502517186904  0.014530361322416398  0.2297261039143875  1.0000
  C   C3        1.0  0.8508502524306671  0.4854696385862162  0.7297261047736707  1.0000
  C   C4        1.0  0.14914974804944492  0.9854696384948489  0.7702738953079014  1.0000
  C   C5        1.0  0.2901460375043186  0.44297108865810614  0.3119465188338365  1.0000
  C   C6        1.0  0.7098539627621244  0.9429710885667387  0.18805348056041415  1.0000
  C   C7        1.0  0.7098539625782972  0.5570289111591591  0.6880534813967656  1.0000
  C   C8        1.0  0.2901460370060109  0.05702891125052649  0.8119465186618745  1.0000
  C   C9        1.0  0.5644704144746492  0.3186715910868478  0.07769645493819428  1.0000
  C   C10       1.0  0.43552958489599  0.8186715909954804  0.42230354443312473  1.0000
  C   C11       1.0  0.43552958560796673  0.6813284098417396  0.9223035452924078  1.0000
  C   C12       1.0  0.5644704148721452  0.1813284099331069  0.577696454789164  1.0000
  C   C13       1.0  0.6356601381119548  0.4004485008340608  0.020021180518292585  1.0000
  C   C14       1.0  0.36433986125868445  0.9004485007426934  0.4799788188530263  1.0000
  C   C15       1.0  0.36433986165618054  0.5995514989832045  0.9799788187039961  1.0000
  C   C16       1.0  0.6356601388239315  0.09955149907457184  0.5200211813775758  1.0000
  C   C17       1.0  0.7081305837546518  0.5213316966281656  0.08848250500076364  1.0000
  C   C18       1.0  0.2918694168262718  0.021331696719532924  0.4115174954018004  1.0000
  C   C19       1.0  0.29186941632796415  0.47866830318909975  0.9115174952298385  1.0000
  C   C20       1.0  0.708130583256344  0.9786683030977323  0.5884825048288017  1.0000
  C   C21       1.0  0.7115639195491822  0.5549737477379159  0.21896689436668976  1.0000
  C   C22       1.0  0.28843608071726073  0.05497374782928316  0.2810331050275609  1.0000
  C   C23       1.0  0.28843608021895306  0.4450262520793495  0.781033104855599  1.0000
  C   C24       1.0  0.7115639193653552  0.9450262519879822  0.7189668952030411  1.0000
  C   C25       1.0  0.6401583320050025  0.47287119062444194  0.27568102062105504  1.0000
  C   C26       1.0  0.3598416673656367  0.9728711905330746  0.22431897875026388  1.0000
  C   C27       1.0  0.3598416677631328  0.5271288091928233  0.7243189786012336  1.0000
  C   C28       1.0  0.6401583324024986  0.027128809284190678  0.7756810204720248  1.0000
  N   N1        1.0  0.5679676192256647  0.3557728032199208  0.20517440236741102  1.0000
  N   N2        1.0  0.43203238104077824  0.8557728031285534  0.29482559702683964  1.0000
  N   N3        1.0  0.4320323805424705  0.6442271965973445  0.7948255968548777  1.0000
  N   N4        1.0  0.567967618727357  0.14422719668871184  0.705174402195449  1.0000
  O   O1        1.0  0.31602666767754606  0.4194735119468054  0.20713549999275363  1.0000
  O   O2        1.0  0.6839733316930932  0.9194735118554379  0.29286449937856535  1.0000
  O   O3        1.0  0.6839733320905892  0.5805264878704599  0.7928644992295352  1.0000
  O   O4        1.0  0.3160266683895228  0.08052648796182729  0.7071355008520368  1.0000
  O   O5        1.0  0.3488729634267211  0.41986802127255446  0.43296145934205255  1.0000
  O   O6        1.0  0.651127035943918  0.919868021181187  0.0670385400292664  1.0000
  O   O7        1.0  0.6511270363414142  0.5801319796560329  0.5670385398802362  1.0000
  O   O8        1.0  0.34887296413869784  0.0801319797474002  0.9329614602013357  1.0000
  O   O9        1.0  0.5023789282198056  0.27961911636492515  0.26084990617151516  1.0000
  O   O10       1.0  0.4976210714653143  0.7796191173848798  0.23915009420811717  1.0000
  O   O11       1.0  0.49762107186281035  0.7203808834523402  0.739150094059087  1.0000
  O   O12       1.0  0.5023789286173016  0.22038088354370752  0.760849906022485  1.0000
  Cl  Cl1       1.0  0.14469600366107377  0.6844055572444402  0.18261872167789206  1.0000
  Cl  Cl2       1.0  0.855303996024046  0.1844055573358075  0.3173812787017403  1.0000
  Cl  Cl3       1.0  0.8553039964215421  0.31559444257282515  0.81738127855271  1.0000
  Cl  Cl4       1.0  0.14469600405856986  0.8155944424814577  0.6826187215288618  1.0000
  Cl  Cl5       1.0  0.039935383893509105  0.385857928082991  0.16425414008574865  1.0000
  Cl  Cl6       1.0  0.9600646157916107  0.8858579279916238  0.3357458602938837  1.0000
  Cl  Cl7       1.0  0.9600646161891069  0.6141420717342743  0.8357458601448535  1.0000
  Cl  Cl8       1.0  0.039935384291005176  0.11414207182564161  0.6642541399367183  1.0000
  Cl  Cl9       1.0  0.10804420376345138  0.5485837859786529  0.4149314369785801  1.0000
  Cl  Cl10      1.0  0.8919557965029915  0.04858378607002015  0.0850685624156706  1.0000
  Cl  Cl11      1.0  0.8919557960046839  0.45141621383861247  0.5850685622437086  1.0000
  Cl  Cl12      1.0  0.10804420357962437  0.9514162137472452  0.9149314378149316  1.0000
