data_image0
_chemical_formula_structural       H64C122N36
_chemical_formula_sum              "H64 C122 N36"
_cell_length_a       7.655451125767822
_cell_length_b       24.837888337094768
_cell_length_c       12.926204867575319
_cell_angle_alpha    90.0
_cell_angle_beta     92.9200914381093
_cell_angle_gamma    90.0

_space_group_name_H-M_alt    "P 1"
_space_group_IT_number       1

loop_
  _space_group_symop_operation_xyz
  'x, y, z'

loop_
  _atom_site_type_symbol
  _atom_site_label
  _atom_site_symmetry_multiplicity
  _atom_site_fract_x
  _atom_site_fract_y
  _atom_site_fract_z
  _atom_site_occupancy
  H   H1        1.0  0.33029081307680286  0.187641327505265  0.6190541886280374  1.0000
  H   H2        1.0  0.6697091862671439  0.6876413275637488  0.3809458113313314  1.0000
  H   H3        1.0  0.3144954222667402  0.10506234566256331  0.5084165778684241  1.0000
  H   H4        1.0  0.6855045783851625  0.6050623453184365  0.49158342212948264  1.0000
  H   H5        1.0  0.025155934004944924  0.0790590320461069  0.42048924508073693  1.0000
  H   H6        1.0  0.974844066646958  0.5790590321045908  0.5795107549171696  1.0000
  H   H7        1.0  0.762882689144035  0.1375516136328528  0.4482607881222268  1.0000
  H   H8        1.0  0.2371173101999118  0.6375516136913367  0.551739211837142  1.0000
  H   H9        1.0  0.801325675375201  0.22027290910350972  0.5576286883377378  1.0000
  H   H10       1.0  0.19867432396874565  0.7202729091619936  0.44237131162163085  1.0000
  H   H11       1.0  0.14948581669367594  0.24358572427287406  0.7291455495240449  1.0000
  H   H12       1.0  0.8505141826502709  0.7435857243313581  0.2708544504353238  1.0000
  H   H13       1.0  0.9511720997400465  0.2687494222296991  0.668733876427936  1.0000
  H   H14       1.0  0.048827899603900306  0.768749422288183  0.3312661235314326  1.0000
  H   H15       1.0  0.3210025155453432  0.28605697890141424  0.5932737795977364  1.0000
  H   H16       1.0  0.6789974837986036  0.7860569789598981  0.4067262203616324  1.0000
  H   H17       1.0  0.124307103384096  0.30670980948982973  0.5238117833218704  1.0000
  H   H18       1.0  0.8756928959598508  0.8067098095483137  0.47618821663749844  1.0000
  H   H19       1.0  0.045527059664054126  0.3639067346357687  0.6719946358302455  1.0000
  H   H20       1.0  0.9544729409878487  0.8639067346942526  0.32800536416766113  1.0000
  H   H21       1.0  0.23994958244095843  0.3436100426159766  0.7439218034706712  1.0000
  H   H22       1.0  0.7600504169029884  0.8436100426744605  0.2560781964886976  1.0000
  H   H23       1.0  0.05330783339553566  0.42465225935683204  0.541921375250877  1.0000
  H   H24       1.0  0.9466921672563673  0.9246522590127052  0.45807862474702954  1.0000
  H   H25       1.0  0.2106869126807928  0.5014770712773448  0.46498029205872365  1.0000
  H   H26       1.0  0.789313086663154  0.001477071218860759  0.5350197079006451  1.0000
  H   H27       1.0  0.5342139307542993  0.5113443630001266  0.5042480582751727  1.0000
  H   H28       1.0  0.4657860698976034  0.011344362941642809  0.495751941722734  1.0000
  H   H29       1.0  0.6881092274902282  0.44218180390147616  0.6182432253303264  1.0000
  H   H30       1.0  0.31189077316167463  0.9421818039599601  0.38175677466758023  1.0000
  H   H31       1.0  0.5135656906159528  0.3676690975521216  0.6911668515177285  1.0000
  H   H32       1.0  0.486434308727994  0.8676690976106055  0.3088331484416403  1.0000
  H   H33       1.0  0.7682460399514728  0.10423344911062687  0.1323756757437606  1.0000
  H   H34       1.0  0.23175396070043006  0.6042334491691108  0.867624324254146  1.0000
  H   H35       1.0  0.9154025844203308  0.10495641234148985  0.9704280406954257  1.0000
  H   H36       1.0  0.084597414923616  0.6049564123999738  0.029571959263943137  1.0000
  H   H37       1.0  0.4106257962682822  0.11156916652456995  0.7991376474517463  1.0000
  H   H38       1.0  0.5893742043836208  0.6115691665830538  0.20086235254616036  1.0000
  H   H39       1.0  0.2640086488711008  0.11377426501187583  0.9607891751804751  1.0000
  H   H40       1.0  0.7359913517808021  0.613774264667749  0.03921082481743144  1.0000
  H   H41       1.0  0.6998387720883997  0.22243338866085832  0.276709298672502  1.0000
  H   H42       1.0  0.30016122725554706  0.7224333883167314  0.7232907012868668  1.0000
  H   H43       1.0  0.8398783269505485  0.22286561904430707  0.11261649643976455  1.0000
  H   H44       1.0  0.1601216737013544  0.7228656187001803  0.8873835035581422  1.0000
  H   H45       1.0  0.3309632167581882  0.24013837283792452  0.9489005655867246  1.0000
  H   H46       1.0  0.6690367838937147  0.7401383728964084  0.051099434411182074  1.0000
  H   H47       1.0  0.19031926159685306  0.23854238490763024  0.11330742727884774  1.0000
  H   H48       1.0  0.8096807390550499  0.7385423849661141  0.8866925727190589  1.0000
  H   H49       1.0  0.9678555188450805  0.3516653336811671  0.32102081558671464  1.0000
  H   H50       1.0  0.03214448180682243  0.851665333739651  0.6789791844111921  1.0000
  H   H51       1.0  0.10606741085072276  0.3536294628107413  0.15607962535147474  1.0000
  H   H52       1.0  0.8939325898011803  0.8536294628692253  0.8439203746464319  1.0000
  H   H53       1.0  0.5936178766069992  0.3640472880496749  0.9941166793308146  1.0000
  H   H54       1.0  0.40638212404490376  0.8640472881081588  0.0058833206670920605  1.0000
  H   H55       1.0  0.45561794523797106  0.36271530122571494  0.15953907438244966  1.0000
  H   H56       1.0  0.5443820554139318  0.8627153012841989  0.8404609256154569  1.0000
  H   H57       1.0  0.0838762641459584  0.47886388925570034  0.20110657031705986  1.0000
  H   H58       1.0  0.9161237351979884  0.9788638893141842  0.7988934296423089  1.0000
  H   H59       1.0  0.23343680300662023  0.4792564741593629  0.04016013017245865  1.0000
  H   H60       1.0  0.7665631963373266  0.9792564742178468  0.9598398697869102  1.0000
  H   H61       1.0  0.7314895569100939  0.4873972116993583  0.8661037536588502  1.0000
  H   H62       1.0  0.2685104437418091  0.9873972117578422  0.1338962463390565  1.0000
  H   H63       1.0  0.5818760399223499  0.4859984716161237  0.026708055137240786  1.0000
  H   H64       1.0  0.4181239594231593  0.9859984716746075  0.9732919455957969  1.0000
  C   C1        1.0  0.20981275149856235  0.17468620685922226  0.5781044746900167  1.0000
  C   C2        1.0  0.7901872478453844  0.6746862069177061  0.42189552526935203  1.0000
  C   C3        1.0  0.1973666159722757  0.12917640809296302  0.5163442192373832  1.0000
  C   C4        1.0  0.802633383371671  0.6291764081514469  0.4836557807219857  1.0000
  C   C5        1.0  0.036267886781885465  0.11515195902255769  0.46847558578588605  1.0000
  C   C6        1.0  0.9637321138700176  0.6151519590810416  0.5315244142120206  1.0000
  C   C7        1.0  0.8909511107231757  0.147569455593612  0.48347711788803605  1.0000
  C   C8        1.0  0.10904888992872737  0.6475694556520959  0.5165228821098706  1.0000
  C   C9        1.0  0.9097278550250424  0.1931476877136625  0.5446410892845951  1.0000
  C   C10       1.0  0.09027214431890443  0.6931476877721464  0.4553589106747736  1.0000
  C   C11       1.0  0.08408858383101904  0.25502072414666854  0.6549022140438002  1.0000
  C   C12       1.0  0.9159114168208838  0.7550207242051524  0.3450977859541063  1.0000
  C   C13       1.0  0.18515216899167333  0.2989267887524633  0.6010492148733233  1.0000
  C   C14       1.0  0.8148478303522735  0.7989267888109473  0.3989507850860455  1.0000
  C   C15       1.0  0.18068825316671394  0.35019850930763174  0.66578818339598  1.0000
  C   C16       1.0  0.8193117461772328  0.8501985093661157  0.33421181656338883  1.0000
  C   C17       1.0  0.19323494109130288  0.43049520534444474  0.5560871803061598  1.0000
  C   C18       1.0  0.8067650595606001  0.9304952054029285  0.4439128196917469  1.0000
  C   C19       1.0  0.2832969534807783  0.4727973727324352  0.5139172613844438  1.0000
  C   C20       1.0  0.7167030471711245  0.9727973727909192  0.4860827386134627  1.0000
  C   C21       1.0  0.4629180202217402  0.4776669255848557  0.5356712009346403  1.0000
  C   C22       1.0  0.5370819804301626  0.9776669256433397  0.4643287990632664  1.0000
  C   C23       1.0  0.5486890211756226  0.4393243649341706  0.5986787752712251  1.0000
  C   C24       1.0  0.4513109781683242  0.9393243645900439  0.4013212246881435  1.0000
  C   C25       1.0  0.45363365426123453  0.39789487841606014  0.639799131014864  1.0000
  C   C26       1.0  0.5463663450827121  0.8978948784745441  0.3602008689445048  1.0000
  C   C27       1.0  0.2339171712303417  0.11134315254448389  0.15669701111592627  1.0000
  C   C28       1.0  0.7660828294231236  0.6113431526029678  0.8433029896556493  1.0000
  C   C29       1.0  0.41744643476186766  0.10597268512834755  0.15405181631701892  1.0000
  C   C30       1.0  0.5825535658900353  0.6059726851868316  0.8459481836808878  1.0000
  C   C31       1.0  0.5092824247517151  0.09909100228638368  0.2508724052226669  1.0000
  C   C32       1.0  0.49071757459223164  0.5990910023448676  0.7491275947367018  1.0000
  C   C33       1.0  0.5031278313469948  0.10720463889127277  0.06017473701919359  1.0000
  C   C34       1.0  0.4968721693049082  0.6072046389497566  0.939825262978713  1.0000
  C   C35       1.0  0.6899844981179734  0.10532743583088355  0.05966096630962939  1.0000
  C   C36       1.0  0.31001550122597327  0.6053274354867567  0.9403390336497393  1.0000
  C   C37       1.0  0.7731281133788204  0.10567585192336898  0.968498878774692  1.0000
  C   C38       1.0  0.22687188727308244  0.6056758519818529  0.031501121223214655  1.0000
  C   C39       1.0  0.6756517171374392  0.10681505222961006  0.8712123333521123  1.0000
  C   C40       1.0  0.3243482822065075  0.6068150518854832  0.12878766660725646  1.0000
  C   C41       1.0  0.48905662158502  0.10976648751287918  0.8717439818672962  1.0000
  C   C42       1.0  0.5109433790668828  0.6097664875713631  0.12825601813061047  1.0000
  C   C43       1.0  0.40601531376197564  0.11076383276477016  0.9627760983614504  1.0000
  C   C44       1.0  0.5939846855819712  0.6107638324206434  0.0372239015979183  1.0000
  C   C45       1.0  0.9425194414585796  0.10539871403199197  0.77114932447381  1.0000
  C   C46       1.0  0.0574805578853671  0.6053987140904759  0.22885067548555887  1.0000
  C   C47       1.0  0.7589862288551668  0.10392731962422266  0.7762177601716282  1.0000
  C   C48       1.0  0.2410137717967361  0.6039273196827065  0.22378223982627846  1.0000
  C   C49       1.0  0.6599322395706902  0.09813763903429774  0.6817834188259806  1.0000
  C   C50       1.0  0.34006775977325654  0.5981376390927817  0.3182165811333882  1.0000
  C   C51       1.0  0.16823497637370208  0.23407170412780884  0.31072865229592217  1.0000
  C   C52       1.0  0.8317650229702448  0.7340717041862928  0.6892713476634467  1.0000
  C   C53       1.0  0.3513847609949181  0.23065843288472232  0.30427492019147784  1.0000
  C   C54       1.0  0.6486152396569849  0.7306584329432062  0.6957250798064287  1.0000
  C   C55       1.0  0.45078865362233017  0.2293720115285122  0.3990992110879245  1.0000
  C   C56       1.0  0.5492113457216166  0.729372011586996  0.6009007888714443  1.0000
  C   C57       1.0  0.4327358852770131  0.23061290969109755  0.20848803787297449  1.0000
  C   C58       1.0  0.5672641153748897  0.7306129097495815  0.7915119621249321  1.0000
  C   C59       1.0  0.6188890293104983  0.2261965994753785  0.2052602819640738  1.0000
  C   C60       1.0  0.3811109700334485  0.7261965995338624  0.794739717995295  1.0000
  C   C61       1.0  0.6981635591050144  0.22664338745708576  0.11293241028236702  1.0000
  C   C62       1.0  0.30183644154688855  0.7266433875155697  0.8870675897155397  1.0000
  C   C63       1.0  0.5974268990161603  0.23225183122289314  0.017135869842913935  1.0000
  C   C64       1.0  0.4025731003277865  0.732251831281377  0.9828641301164548  1.0000
  C   C65       1.0  0.4113435439285961  0.23641680888105826  0.020411181880042734  1.0000
  C   C66       1.0  0.5886564567233067  0.7364168085369315  0.979588818117864  1.0000
  C   C67       1.0  0.3322223618231505  0.23566148903480624  0.11274695720199983  1.0000
  C   C68       1.0  0.6677776388287524  0.7356614890932902  0.8872530427959069  1.0000
  C   C69       1.0  0.8615615154024342  0.22965095915505632  0.9153959841803133  1.0000
  C   C70       1.0  0.13843848394151262  0.7296509592135403  0.08460401577905556  1.0000
  C   C71       1.0  0.6781926525149407  0.23326786284593215  0.9213519179902089  1.0000
  C   C72       1.0  0.32180734682900614  0.7332678625018054  0.07864808196916  1.0000
  C   C73       1.0  0.5793989020973194  0.23853565325646364  0.826490052910766  1.0000
  C   C74       1.0  0.42060109724662736  0.7385356533149475  0.17350994704860265  1.0000
  C   C75       1.0  0.43839756468024316  0.35729646898952233  0.3583362871376699  1.0000
  C   C76       1.0  0.5616024359716598  0.8572964690480063  0.6416637128602367  1.0000
  C   C77       1.0  0.6212040198458989  0.354062433997907  0.35049092357817824  1.0000
  C   C78       1.0  0.37879598080600396  0.8540624340563909  0.6495090764197283  1.0000
  C   C79       1.0  0.7241425337962352  0.3473717545108022  0.4434119650722259  1.0000
  C   C80       1.0  0.2758574655477116  0.847371754569286  0.5565880348871429  1.0000
  C   C81       1.0  0.6998701561893724  0.35649300173300064  0.2538056891990468  1.0000
  C   C82       1.0  0.3001298444625305  0.8564930017914845  0.7461943107988599  1.0000
  C   C83       1.0  0.8861004810438605  0.35407245900472806  0.24980024933825354  1.0000
  C   C84       1.0  0.11389951960804238  0.8540724590632119  0.750199750659653  1.0000
  C   C85       1.0  0.9639713888612472  0.3552408574452935  0.1571334331147727  1.0000
  C   C86       1.0  0.03602861179065561  0.8552408575037774  0.842866566883134  1.0000
  C   C87       1.0  0.8618309558119216  0.3584511919519075  0.06161164087917522  1.0000
  C   C88       1.0  0.13816904353202514  0.8584511920103913  0.9383883590801935  1.0000
  C   C89       1.0  0.6753530406788008  0.36138569342847404  0.06549155368801235  1.0000
  C   C90       1.0  0.32464695997466436  0.8613856934869579  0.9345084470835632  1.0000
  C   C91       1.0  0.5975430218385527  0.36048462769791534  0.15835301497524498  1.0000
  C   C92       1.0  0.40245697881335024  0.8604846277563992  0.8416469850226617  1.0000
  C   C93       1.0  0.1265680926470837  0.3571109189968075  0.9596206287606687  1.0000
  C   C94       1.0  0.8734319080048191  0.8571109190552915  0.04037937123723794  1.0000
  C   C95       1.0  0.9430071520122559  0.35921403337155033  0.9661264614813604  1.0000
  C   C96       1.0  0.05699284863964698  0.8592140334300343  0.033873538516546176  1.0000
  C   C97       1.0  0.846710026323861  0.36044157613147426  0.870008861461711  1.0000
  C   C98       1.0  0.1532899730200857  0.8604415761899582  0.12999113849765778  1.0000
  C   C99       1.0  0.5492419258741915  0.4826060978822358  0.22343442545721037  1.0000
  C   C100      1.0  0.4507580734697551  0.9826060979407197  0.7765655745021584  1.0000
  C   C101      1.0  0.733490241811924  0.48334645751951366  0.22125127443822828  1.0000
  C   C102      1.0  0.2665097575320229  0.9833464575779975  0.7787487255211406  1.0000
  C   C103      1.0  0.8247705221172305  0.4829953024663293  0.31917739298333286  1.0000
  C   C104      1.0  0.1752294785346725  0.9829953025248133  0.6808226070145738  1.0000
  C   C105      1.0  0.819941130747491  0.4835672882892458  0.12762719911332865  1.0000
  C   C106      1.0  0.18005886990441194  0.9835672883477297  0.872372800884578  1.0000
  C   C107      1.0  0.006721891980590334  0.48111508868300806  0.12808795063178918  1.0000
  C   C108      1.0  0.9932781073633564  0.981115088741492  0.8719120493275796  1.0000
  C   C109      1.0  0.09128650145810656  0.4814836171937965  0.03745160291613801  1.0000
  C   C110      1.0  0.9087134978858402  0.9814836168496698  0.9625483970432307  1.0000
  C   C111      1.0  0.9956329597072214  0.4848647987523985  0.9396940938714061  1.0000
  C   C112      1.0  0.004367039636725309  0.9848647988108824  0.06030590608796264  1.0000
  C   C113      1.0  0.8088969560338504  0.48640357368693754  0.939136419073525  1.0000
  C   C114      1.0  0.19110304331009634  0.9864035733428107  0.060863580885843774  1.0000
  C   C115      1.0  0.7241984453433279  0.48540694427689907  0.029673784711334417  1.0000
  C   C116      1.0  0.27580155400061884  0.985406944335383  0.9703262152480343  1.0000
  C   C117      1.0  0.265269840966121  0.48294783909166555  0.8421940583822054  1.0000
  C   C118      1.0  0.7347301596857819  0.9829478391501494  0.15780594161570122  1.0000
  C   C119      1.0  0.0820389379783113  0.487544870789786  0.8456382132060327  1.0000
  C   C120      1.0  0.9179610613656356  0.9875448708482699  0.15436178675333606  1.0000
  C   C121      1.0  0.987511770825639  0.4954008389522881  0.7502740817477003  1.0000
  C   C122      1.0  0.0124882298262638  0.9954008386081614  0.24972591825020626  1.0000
  N   N1        1.0  0.06716355217949604  0.20590569458201388  0.590509792616681  1.0000
  N   N2        1.0  0.9328364484724069  0.7059056946404978  0.40949020738122566  1.0000
  N   N3        1.0  0.2787939928846105  0.39444305276822694  0.6189375550294917  1.0000
  N   N4        1.0  0.7212060077672925  0.8944430528267109  0.38106244496841496  1.0000
  N   N5        1.0  0.08229478178376423  0.1168640111673647  0.1593787682520991  1.0000
  N   N6        1.0  0.9177052175601824  0.6168640112258486  0.8406212317072698  1.0000
  N   N7        1.0  0.5841157676222439  0.093383851659239  0.33137512351227  1.0000
  N   N8        1.0  0.4158842330296589  0.5933838517177229  0.6686248764856367  1.0000
  N   N9        1.0  0.09491639185718302  0.10749524048759367  0.7669086116396393  1.0000
  N   N10       1.0  0.9050836074867638  0.6074952405460776  0.23309138831972956  1.0000
  N   N11       1.0  0.5755661783288638  0.09214034659226948  0.604526667104737  1.0000
  N   N12       1.0  0.4244338223230391  0.5921403466507534  0.39547333289316966  1.0000
  N   N13       1.0  0.016307145497807284  0.23706716972416889  0.3165012600329212  1.0000
  N   N14       1.0  0.9836928551540955  0.7370671697826527  0.6834987399649854  1.0000
  N   N15       1.0  0.5320024218835072  0.22979211729025753  0.47837135685261073  1.0000
  N   N16       1.0  0.46799757876839565  0.7297921173487415  0.5216286431452959  1.0000
  N   N17       1.0  0.013727335682805986  0.22701772805616613  0.9105053958184982  1.0000
  N   N18       1.0  0.9862726649690969  0.72701772811465  0.08949460417940845  1.0000
  N   N19       1.0  0.49641672801691417  0.2425164296678116  0.7482347155967213  1.0000
  N   N20       1.0  0.5035832726349887  0.7425164297262955  0.2517652844011855  1.0000
  N   N21       1.0  0.28621661156458245  0.3591956119182532  0.36399196765365704  1.0000
  N   N22       1.0  0.7137833890873205  0.8591956119767372  0.6360080323442496  1.0000
  N   N23       1.0  0.8118194395182546  0.34163379892996676  0.5195257307061133  1.0000
  N   N24       1.0  0.18818055982569215  0.8416337985858399  0.4804742692532554  1.0000
  N   N25       1.0  0.2782641182446714  0.3558069776326928  0.9516669388143653  1.0000
  N   N26       1.0  0.7217358810992753  0.8558069776911768  0.04833306114500336  1.0000
  N   N27       1.0  0.7715829753954946  0.3606777391224818  0.7887818433157471  1.0000
  N   N28       1.0  0.22841702525640833  0.8606777391809657  0.2112181566821596  1.0000
  N   N29       1.0  0.39679512968019914  0.48057953429853434  0.22659477789081195  1.0000
  N   N30       1.0  0.6032048709717037  0.9805795343570182  0.7734052221070947  1.0000
  N   N31       1.0  0.8971786254544463  0.4822100006026894  0.40114433739177163  1.0000
  N   N32       1.0  0.10282137519745652  0.9822100006611734  0.5988556626061349  1.0000
  N   N33       1.0  0.4173173738308262  0.47870661058744235  0.8389044356299716  1.0000
  N   N34       1.0  0.5826826268210767  0.9787066106459262  0.16109556436793507  1.0000
  N   N35       1.0  0.9080136278139811  0.5023427740983002  0.6715084990278894  1.0000
  N   N36       1.0  0.09198637152996564  0.002342774039816233  0.32849150093147933  1.0000
