data_image0
_chemical_formula_structural       H64C120N12O24Br4
_chemical_formula_sum              "H64 C120 N12 O24 Br4"
_cell_length_a       8.001650484264749
_cell_length_b       20.707563671824154
_cell_length_c       14.288166867931327
_cell_angle_alpha    90.0
_cell_angle_beta     93.0943428255628
_cell_angle_gamma    90.0

_space_group_name_H-M_alt    "P 1"
_space_group_IT_number       1

loop_
  _space_group_symop_operation_xyz
  'x, y, z'

loop_
  _atom_site_type_symbol
  _atom_site_label
  _atom_site_symmetry_multiplicity
  _atom_site_fract_x
  _atom_site_fract_y
  _atom_site_fract_z
  _atom_site_occupancy
  H   H1        1.0  0.7537880022213304  0.31013297999601275  0.5009181322037924  1.0000
  H   H2        1.0  0.24621199729801613  0.8101329797105096  0.9990818676401856  1.0000
  H   H3        1.0  0.24621199670492172  0.6898670203988114  0.49908186792578957  1.0000
  H   H4        1.0  0.7537880028787166  0.18986702020139937  0.0009181324980451663  1.0000
  H   H5        1.0  0.005165205165880505  0.37162115843066273  0.2647203994695225  1.0000
  H   H6        1.0  0.9948347943656242  0.8716211581451595  0.23527960025346384  1.0000
  H   H7        1.0  0.9948347949587186  0.6283788419641614  0.7352795999678597  1.0000
  H   H8        1.0  0.00516520581110847  0.12837884176674935  0.7647203998847669  1.0000
  H   H9        1.0  0.36426738777896195  0.09926044234729299  0.40543201155047565  1.0000
  H   H10       1.0  0.635732613055157  0.5992604425447051  0.09456798888200782  1.0000
  H   H11       1.0  0.6357326123977708  0.9007395575646158  0.5945679885877551  1.0000
  H   H12       1.0  0.36426738712157564  0.4007395573672038  0.9054320112562229  1.0000
  H   H13       1.0  0.07562357927063314  0.12069604129242462  0.45373938409173187  1.0000
  H   H14       1.0  0.9243764215113524  0.6206960410069213  0.04626061563990322  1.0000
  H   H15       1.0  0.9243764209060995  0.8793039591023997  0.5462606160464988  1.0000
  H   H16       1.0  0.07562357866538041  0.37930395890498747  0.9537393844983274  1.0000
  H   H17       1.0  0.8542106572712699  0.19784591007074756  0.4914176665520964  1.0000
  H   H18       1.0  0.14578934226023493  0.6978459102681596  0.00858233317088994  1.0000
  H   H19       1.0  0.14578934290546292  0.8021540898411614  0.5085823335861344  1.0000
  H   H20       1.0  0.8542106579164978  0.30215408964374924  0.9914176669673407  1.0000
  H   H21       1.0  0.8055654519189608  0.42848411337123654  0.4900635019434932  1.0000
  H   H22       1.0  0.19443454766467758  0.9284841135686486  0.00993649848034159  1.0000
  H   H23       1.0  0.19443454825777193  0.5715158865406723  0.5099364981947375  1.0000
  H   H24       1.0  0.8055654512615745  0.0715158863432602  0.9900635016492404  1.0000
  H   H25       1.0  0.26004507405452704  0.4326059087380249  0.22706001505803622  1.0000
  H   H26       1.0  0.7399549267274583  0.932605908935437  0.27293998467359887  1.0000
  H   H27       1.0  0.739954926070072  0.567394091173884  0.7729399843793462  1.0000
  H   H28       1.0  0.26004507344927436  0.06739409097647184  0.7270600154646318  1.0000
  H   H29       1.0  0.159293713212324  0.29009023201379974  0.16910785331794823  1.0000
  H   H30       1.0  0.8407062875696615  0.7900902322112119  0.33089214641368686  1.0000
  H   H31       1.0  0.8407062869644087  0.7099097678981091  0.8308921468202826  1.0000
  H   H32       1.0  0.15929371260707126  0.20990976818361234  0.6691078537245438  1.0000
  H   H33       1.0  0.08181594897858356  0.46937094455128603  0.44438033437640195  1.0000
  H   H34       1.0  0.9181840505529212  0.9693709447486981  0.05561966534658439  1.0000
  H   H35       1.0  0.918184051198149  0.5306290553606228  0.5556196657618288  1.0000
  H   H36       1.0  0.08181594957167794  0.030629055163210704  0.9443803340907979  1.0000
  H   H37       1.0  0.4093050250637755  0.5025956029854471  0.1208853628662616  1.0000
  H   H38       1.0  0.5906949757182098  0.002595602788035046  0.37911463686537344  1.0000
  H   H39       1.0  0.5906949751129572  0.4974043969264617  0.8791146372719691  1.0000
  H   H40       1.0  0.40930502440638916  0.9974043971238737  0.6208853625720088  1.0000
  H   H41       1.0  0.5667387359050898  0.16179254754911812  0.11480117394554962  1.0000
  H   H42       1.0  0.4332612636264149  0.6617925477465303  0.38519882577743675  1.0000
  H   H43       1.0  0.4332612642716429  0.8382074523627907  0.8851988261926811  1.0000
  H   H44       1.0  0.5667387352998371  0.3382074521653787  0.6148011743521452  1.0000
  H   H45       1.0  0.36868005121882336  0.4480134489516581  0.39459453529898453  1.0000
  H   H46       1.0  0.6313199496152956  0.9480134486661548  0.10540546513349897  1.0000
  H   H47       1.0  0.6313199489579092  0.5519865509602508  0.6054054648392463  1.0000
  H   H48       1.0  0.3686800505614371  0.05198655124575399  0.8945945350047317  1.0000
  H   H49       1.0  0.7456134557527416  0.37914532508151794  0.16122756498262242  1.0000
  H   H50       1.0  0.25438654377876313  0.87914532527893  0.33877243474036395  1.0000
  H   H51       1.0  0.2543865443718575  0.6208546748303909  0.8387724344547599  1.0000
  H   H52       1.0  0.7456134563979696  0.12085467511589414  0.6612275653978668  1.0000
  H   H53       1.0  0.5867607177530689  0.37135025307023967  0.3522261630540193  1.0000
  H   H54       1.0  0.4132392830289164  0.8713502532676517  0.14777383667761576  1.0000
  H   H55       1.0  0.4132392824236637  0.6286497468416692  0.6477738370842113  1.0000
  H   H56       1.0  0.5867607171478163  0.12864974712717245  0.852226163460615  1.0000
  H   H57       1.0  0.6802691155884408  0.2572046897649751  0.33014989104126524  1.0000
  H   H58       1.0  0.31973088394306376  0.7572046894794718  0.16985010868172112  1.0000
  H   H59       1.0  0.31973088453615817  0.7427953101469338  0.669850108396117  1.0000
  H   H60       1.0  0.6802691149831882  0.242795310432437  0.8301498914478609  1.0000
  H   H61       1.0  0.631335569268871  0.13965115480653043  0.34717513779072656  1.0000
  H   H62       1.0  0.3686644315131144  0.6396511545210272  0.15282486194090852  1.0000
  H   H63       1.0  0.36866443090786166  0.8603488451053786  0.6528248623475041  1.0000
  H   H64       1.0  0.6313355686114848  0.3603488453908817  0.8471751374964738  1.0000
  C   C1        1.0  0.17108300782148328  0.12454337607611055  0.18019551961180527  1.0000
  C   C2        1.0  0.828916991762155  0.6245433762735226  0.3198044808120294  1.0000
  C   C3        1.0  0.8289169911047687  0.8754566238357984  0.8198044805177767  1.0000
  C   C4        1.0  0.17108300841457766  0.37545662412130154  0.6801955193262013  1.0000
  C   C5        1.0  0.8741002722939115  0.3283298411029865  0.4803613593264323  1.0000
  C   C6        1.0  0.1258997285402075  0.8283298413003987  0.019638641106051163  1.0000
  C   C7        1.0  0.1258997278828212  0.6716701588089223  0.5196386408117983  1.0000
  C   C8        1.0  0.8741002716365252  0.17167015861151025  0.9803613590321795  1.0000
  C   C9        1.0  0.00319872707466281  0.40206676564894844  0.2025912135434944  1.0000
  C   C10       1.0  0.996801272456842  0.9020667653634452  0.2974087861794919  1.0000
  C   C11       1.0  0.9968012731020699  0.5979332347458758  0.7974087865947364  1.0000
  C   C12       1.0  0.003198727719890776  0.09793323454846366  0.7025912139587388  1.0000
  C   C13       1.0  0.3837299947565637  0.1509745984388225  0.39641487543366577  1.0000
  C   C14       1.0  0.6162700048270746  0.6509745981533193  0.10358512499016898  1.0000
  C   C15       1.0  0.6162700054201689  0.8490254014730865  0.6035851247045649  1.0000
  C   C16       1.0  0.38372999534965807  0.3490254017585896  0.8964148751480617  1.0000
  C   C17       1.0  0.25533642081273283  0.1940953862896388  0.4176091717627049  1.0000
  C   C18       1.0  0.7446635799692526  0.6940953864870508  0.08239082796893014  1.0000
  C   C19       1.0  0.7446635793118663  0.8059046136222701  0.5823908276746773  1.0000
  C   C20       1.0  0.2553364202074801  0.305904613424858  0.9176091721693005  1.0000
  C   C21       1.0  0.09690341842568355  0.17245675331951846  0.44765111405852687  1.0000
  C   C22       1.0  0.9030965811579549  0.6724567535169306  0.05234888636530793  1.0000
  C   C23       1.0  0.9030965817510491  0.8275432465923903  0.5523488860797039  1.0000
  C   C24       1.0  0.09690341901877793  0.3275432463949783  0.9476511137729228  1.0000
  C   C25       1.0  0.9736879541177766  0.21513587743118404  0.46809400588634914  1.0000
  C   C26       1.0  0.026312045413728086  0.7151358776285961  0.03190599383663719  1.0000
  C   C27       1.0  0.02631204605895605  0.7848641224807249  0.5319059942518816  1.0000
  C   C28       1.0  0.973687954710871  0.2848641222833127  0.9680940056007451  1.0000
  C   C29       1.0  0.9987294304754637  0.28341664973294295  0.4602014654550671  1.0000
  C   C30       1.0  0.0012705690560410505  0.7834166494474397  0.039798534267919274  1.0000
  C   C31       1.0  0.0012705697012690145  0.7165833506618812  0.5397985346831636  1.0000
  C   C32       1.0  0.9987294310685579  0.21658335046446914  0.960201465169463  1.0000
  C   C33       1.0  0.15643794330516037  0.30655834798361825  0.43171876258082903  1.0000
  C   C34       1.0  0.8435620562263443  0.8065583481810302  0.06828123714215727  1.0000
  C   C35       1.0  0.8435620568715724  0.6934416519282907  0.5682812375574016  1.0000
  C   C36       1.0  0.15643794389825474  0.19344165221379384  0.931718762295225  1.0000
  C   C37       1.0  0.28374933416956055  0.26202799788479514  0.40947251004888086  1.0000
  C   C38       1.0  0.7162506666124249  0.7620279980822073  0.09052748968275426  1.0000
  C   C39       1.0  0.7162506660071722  0.7379720020271137  0.5905274900893499  1.0000
  C   C40       1.0  0.2837493335643078  0.23797200182970163  0.9094725104554764  1.0000
  C   C41       1.0  0.11029004089066342  0.18827849436024702  0.18428632809800363  1.0000
  C   C42       1.0  0.8897099586408413  0.6882784945576591  0.3157136716249827  1.0000
  C   C43       1.0  0.8897099580355886  0.8117215055516618  0.8157136720315783  1.0000
  C   C44       1.0  0.11029004153589142  0.3117215053542497  0.6842863285132481  1.0000
  C   C45       1.0  0.904078074492928  0.39449289542039034  0.47450647088679193  1.0000
  C   C46       1.0  0.09592192509071032  0.8944928951348872  0.02549352953704281  1.0000
  C   C47       1.0  0.09592192568380467  0.6055071049744338  0.5254935292514388  1.0000
  C   C48       1.0  0.9040780750860223  0.10550710477702176  0.9745064706011878  1.0000
  C   C49       1.0  0.14670964797515565  0.4363500459638587  0.18177683830017002  1.0000
  C   C50       1.0  0.8532903516084827  0.9363500456783554  0.3182231621236647  1.0000
  C   C51       1.0  0.8532903522015769  0.5636499544309655  0.8182231618380607  1.0000
  C   C52       1.0  0.14670964856825006  0.06364995423355338  0.681776838014566  1.0000
  C   C53       1.0  0.20922250094590483  0.24141435560582405  0.1641712573318646  1.0000
  C   C54       1.0  0.7907774986377334  0.7414143553203209  0.33582874309197014  1.0000
  C   C55       1.0  0.7907774992308279  0.7585856443060848  0.835828742806366  1.0000
  C   C56       1.0  0.20922250153899916  0.258585644591588  0.6641712570462607  1.0000
  C   C57       1.0  0.05868369477166087  0.4175843308774075  0.44868788382819264  1.0000
  C   C58       1.0  0.9413163047598438  0.9175843305919041  0.05131211589479374  1.0000
  C   C59       1.0  0.9413163054050718  0.5824156690345014  0.5513121163100382  1.0000
  C   C60       1.0  0.05868369541688883  0.08241566932000462  0.948687884243437  1.0000
  C   C61       1.0  0.14615780627765548  0.47494251887207317  0.10101276090275335  1.0000
  C   C62       1.0  0.8538421932538491  0.97494251858657  0.398987238820233  1.0000
  C   C63       1.0  0.8538421938990771  0.5250574810398356  0.8989872392354773  1.0000
  C   C64       1.0  0.1461578068707499  0.025057481325338905  0.6010127606171494  1.0000
  C   C65       1.0  0.3711767142181021  0.23082720139133275  0.13798899940933515  1.0000
  C   C66       1.0  0.6288232853655362  0.7308272011058295  0.36201100101449957  1.0000
  C   C67       1.0  0.6288232859586306  0.7691727985205761  0.8620110007288956  1.0000
  C   C68       1.0  0.37117671356071574  0.2691727988060793  0.6379889991150823  1.0000
  C   C69       1.0  0.18653172001081908  0.3744670422310919  0.4265582096357881  1.0000
  C   C70       1.0  0.8134682795206857  0.8744670419455887  0.07344179008719827  1.0000
  C   C71       1.0  0.813468278915433  0.6255329581637322  0.573441790493794  1.0000
  C   C72       1.0  0.18653172060391343  0.12553295796632016  0.9265582093501841  1.0000
  C   C73       1.0  0.2972569158635784  0.5093746177563158  0.07475341092566348  1.0000
  C   C74       1.0  0.7027430836679263  0.009374618041819077  0.42524658879732286  1.0000
  C   C75       1.0  0.7027430842610207  0.49062538215559304  0.9252465885117188  1.0000
  C   C76       1.0  0.2972569152583257  0.9906253823530052  0.5747534113322592  1.0000
  C   C77       1.0  0.4376044061166371  0.16905264643774592  0.1321723899377266  1.0000
  C   C78       1.0  0.5623955947174819  0.6690526466351581  0.3678276104947569  1.0000
  C   C79       1.0  0.5623955940600956  0.830947353474163  0.8678276102005041  1.0000
  C   C80       1.0  0.4376044054592508  0.33094735327675084  0.6321723896434738  1.0000
  C   C81       1.0  0.3460332249390415  0.3962402921964405  0.3983763496690602  1.0000
  C   C82       1.0  0.6539667758429439  0.8962402923938526  0.10162365006257482  1.0000
  C   C83       1.0  0.6539667751855576  0.6037597077154683  0.601623649768322  1.0000
  C   C84       1.0  0.34603322433378875  0.1037597075180562  0.8983763500756557  1.0000
  C   C85       1.0  0.8569674361312654  0.4062405381588261  0.14539211541979777  1.0000
  C   C86       1.0  0.1430325646507201  0.9062405383562382  0.3546078843118373  1.0000
  C   C87       1.0  0.1430325640454674  0.5937594617530828  0.854607884718433  1.0000
  C   C88       1.0  0.8569674355260127  0.0937594615556707  0.6453921158263934  1.0000
  C   C89       1.0  0.33621785992768605  0.11737282176304877  0.15270854380321155  1.0000
  C   C90       1.0  0.6637821396559522  0.617372821960461  0.3472914566206232  1.0000
  C   C91       1.0  0.6637821402490467  0.8826271781488602  0.8472914563350192  1.0000
  C   C92       1.0  0.3362178592702997  0.382627177951448  0.6527085435089587  1.0000
  C   C93       1.0  0.4670021373014958  0.3534851470701859  0.374672489849383  1.0000
  C   C94       1.0  0.532997862230009  0.853485147267598  0.12532750987360336  1.0000
  C   C95       1.0  0.5329978628752369  0.6465148528417229  0.6253275102888477  1.0000
  C   C96       1.0  0.46700213789459016  0.14651485312722617  0.874672489563779  1.0000
  C   C97       1.0  0.849771621365911  0.44567624353401386  0.06528708999406807  1.0000
  C   C98       1.0  0.15022837941607436  0.945676243731426  0.43471290973756704  1.0000
  C   C99       1.0  0.15022837881082166  0.554323756377895  0.9347129101441626  1.0000
  C   C100      1.0  0.8497716207606583  0.05432375618048288  0.5652870904006637  1.0000
  C   C101      1.0  0.4404163026221519  0.28505937847395296  0.37918080595602244  1.0000
  C   C102      1.0  0.5595836969614865  0.785059378671365  0.12081919446781231  1.0000
  C   C103      1.0  0.5595836975545808  0.7149406214379559  0.6208191941822083  1.0000
  C   C104      1.0  0.4404163032152462  0.21494062124054383  0.8791808056704183  1.0000
  C   C105      1.0  0.2894986926668086  0.5454324960192214  0.9973650553189178  1.0000
  C   C106      1.0  0.7105013069046714  0.04543249582180926  0.5026349452259085  1.0000
  C   C107      1.0  0.710501307509924  0.4545675038926875  0.002634944819312877  1.0000
  C   C108      1.0  0.2894986932720613  0.9545675040900996  0.4973650549123222  1.0000
  C   C109      1.0  0.5625221913293919  0.2399926765292045  0.3556485691791225  1.0000
  C   C110      1.0  0.43747780820211285  0.7399926762437012  0.14435143054386382  1.0000
  C   C111      1.0  0.43747780754472654  0.7600073233827044  0.644351430249611  1.0000
  C   C112      1.0  0.5625221919746197  0.26000732366820756  0.8556485695943669  1.0000
  C   C113      1.0  0.9998862455646779  0.480927072244164  0.041201059235897314  1.0000
  C   C114      1.0  0.00011375396682693174  0.9809270724415762  0.458798940487089  1.0000
  C   C115      1.0  0.00011375461205490483  0.5190729276677448  0.9587989409023334  1.0000
  C   C116      1.0  0.9998862461577721  0.01907292747033278  0.5412010589502932  1.0000
  C   C117      1.0  0.5347070709487312  0.17386499189659832  0.3650365167416187  1.0000
  C   C118      1.0  0.4652929298332543  0.6738649920940104  0.1349634829900164  1.0000
  C   C119      1.0  0.46529292922800153  0.8261350080153105  0.6349634833966119  1.0000
  C   C120      1.0  0.5347070703434783  0.32613500781789845  0.8650365171482143  1.0000
  N   N1        1.0  0.9401018253873643  0.20337491926827975  0.21264974319893  1.0000
  N   N2        1.0  0.0598981741441404  0.7033749189827765  0.28735025652405627  1.0000
  N   N3        1.0  0.05989817478936836  0.796625080643629  0.7873502569393006  1.0000
  N   N4        1.0  0.9401018260325923  0.29662508092913237  0.7126497436141743  1.0000
  N   N5        1.0  0.4793711710296724  0.2863701082357999  0.1205680861473008  1.0000
  N   N6        1.0  0.5206288298044466  0.7863701084332119  0.3794319142851827  1.0000
  N   N7        1.0  0.5206288291470602  0.713629891676109  0.8794319139909299  1.0000
  N   N8        1.0  0.47937117037228616  0.21362989196161222  0.620568085853048  1.0000
  N   N9        1.0  0.41478947461664156  0.053077321283116395  0.1476997348391446  1.0000
  N   N10       1.0  0.5852105249148631  0.5530773209976132  0.35230026488384175  1.0000
  N   N11       1.0  0.5852105255600911  0.9469226791117078  0.8523002652990861  1.0000
  N   N12       1.0  0.4147894752618695  0.4469226789142957  0.6476997352543888  1.0000
  O   O1        1.0  0.8307959030880017  0.16119395902386027  0.20414400922706427  1.0000
  O   O2        1.0  0.16920409644350307  0.6611939587383571  0.2958559904959221  1.0000
  O   O3        1.0  0.16920409703659747  0.8388060408880486  0.7958559902103182  1.0000
  O   O4        1.0  0.8307959037332296  0.33880604117355184  0.7041440096423086  1.0000
  O   O5        1.0  0.917169080331675  0.25872238689719557  0.24225578143863963  1.0000
  O   O6        1.0  0.08283091925196336  0.7587223870946076  0.2577442189851951  1.0000
  O   O7        1.0  0.08283091859457704  0.7412776130147133  0.7577442186909423  1.0000
  O   O8        1.0  0.9171690809247693  0.24127761330021655  0.7422557811530355  1.0000
  O   O9        1.0  0.42775793232351  0.3407028915525969  0.1407405587029573  1.0000
  O   O10       1.0  0.572242068510609  0.8407028912670937  0.3592594417295262  1.0000
  O   O11       1.0  0.5722420678532227  0.6592971088422273  0.8592594414352734  1.0000
  O   O12       1.0  0.4277579316661237  0.15929710864481517  0.6407405584087045  1.0000
  O   O13       1.0  0.6171935594961101  0.27498274593007155  0.08837483319473573  1.0000
  O   O14       1.0  0.38280644128587515  0.7749827456445684  0.41162516653689935  1.0000
  O   O15       1.0  0.3828064406806225  0.7250172544647527  0.9116251669434949  1.0000
  O   O16       1.0  0.6171935588387238  0.22501725426734057  0.588374832900483  1.0000
  O   O17       1.0  0.5471209732981112  0.04523903849078336  0.19544213196225754  1.0000
  O   O18       1.0  0.45287902623339354  0.5452390382052802  0.30455786776072885  1.0000
  O   O19       1.0  0.4528790268786215  0.9547609614211254  0.8045578681759732  1.0000
  O   O20       1.0  0.5471209726928584  0.4547609617066288  0.6954421323688531  1.0000
  O   O21       1.0  0.34656189082173805  0.012600516610026424  0.09490238475215136  1.0000
  O   O22       1.0  0.6534381099602474  0.5126005163245232  0.40509761497948377  1.0000
  O   O23       1.0  0.6534381093549947  0.9873994833018825  0.9050976153860794  1.0000
  O   O24       1.0  0.3465618901643518  0.4873994835873857  0.5949023844578987  1.0000
  Br  Br1       1.0  0.05708189292170572  0.05192326374265757  0.2227006260357562  1.0000
  Br  Br2       1.0  0.9429181066619327  0.5519232639400696  0.2772993743880786  1.0000
  Br  Br3       1.0  0.9429181060045463  0.9480767361692514  0.7772993740938258  1.0000
  Br  Br4       1.0  0.05708189351480007  0.44807673645475454  0.7227006257501521  1.0000
