data_image0
_chemical_formula_structural       H20C20N4I16
_chemical_formula_sum              "H20 C20 N4 I16"
_cell_length_a       4.345084073964832
_cell_length_b       15.231281919617402
_cell_length_c       16.788862656190407
_cell_angle_alpha    90.0
_cell_angle_beta     92.57811197264941
_cell_angle_gamma    90.0

_space_group_name_H-M_alt    "P 1"
_space_group_IT_number       1

loop_
  _space_group_symop_operation_xyz
  'x, y, z'

loop_
  _atom_site_type_symbol
  _atom_site_label
  _atom_site_symmetry_multiplicity
  _atom_site_fract_x
  _atom_site_fract_y
  _atom_site_fract_z
  _atom_site_occupancy
  H   H1        1.0  0.3833959204942604  0.4360264969848856  0.35941207681003723  1.0000
  H   H2        1.0  0.1166040796550047  0.9360264969974452  0.14058792321437247  1.0000
  H   H3        1.0  0.6166040798042699  0.5639735030402336  0.6405879232387821  1.0000
  H   H4        1.0  0.8833959206435255  0.06397350302767399  0.8594120768344469  1.0000
  H   H5        1.0  0.5343526475760785  0.29664737766954136  0.29151865016380835  1.0000
  H   H6        1.0  0.9656473532265137  0.796647377682101  0.20848134943827057  1.0000
  H   H7        1.0  0.46564735263560897  0.7033526223555779  0.7084813492887905  1.0000
  H   H8        1.0  0.034352647072016546  0.2033526223430183  0.7915186506105487  1.0000
  H   H9        1.0  0.3424932569793861  0.1528844283947502  0.3439954618623323  1.0000
  H   H10       1.0  0.157506743169879  0.6528844284073099  0.15600453816207735  1.0000
  H   H11       1.0  0.6575067433191442  0.8471155716303691  0.656004538186487  1.0000
  H   H12       1.0  0.8424932548265054  0.3471155716178094  0.8439954618823944  1.0000
  H   H13       1.0  0.008283543193152226  0.15460096677530016  0.46253011181767695  1.0000
  H   H14       1.0  0.49171645695611294  0.6546009667878597  0.03746988820673272  1.0000
  H   H15       1.0  0.991716457105378  0.845399033249819  0.5374698882311425  1.0000
  H   H16       1.0  0.5082835433424174  0.34539903323725946  0.9625301118420868  1.0000
  H   H17       1.0  0.8810197700865269  0.2999770855869478  0.524000175063285  1.0000
  H   H18       1.0  0.6189802280591227  0.7999770855995074  0.9759998250055967  1.0000
  H   H19       1.0  0.11898022790985756  0.7000229144381713  0.47599982498118676  1.0000
  H   H20       1.0  0.3810197722394076  0.2000229144256118  0.024000175043222924  1.0000
  C   C1        1.0  0.3080764640037393  0.37191639481795463  0.37974117192151285  1.0000
  C   C2        1.0  0.19192353614552587  0.8719163948305143  0.12025882810289681  1.0000
  C   C3        1.0  0.6919235362947909  0.6280836052071646  0.6202588281273065  1.0000
  C   C4        1.0  0.8080764641530044  0.12808360519460496  0.8797411719459226  1.0000
  C   C5        1.0  0.3890030861579602  0.2942940708245125  0.3427524155051836  1.0000
  C   C6        1.0  0.11099691390446219  0.7942940708370722  0.1572475839230055  1.0000
  C   C7        1.0  0.6109969140537274  0.7057059292006068  0.6572475839474152  1.0000
  C   C8        1.0  0.8890030863072252  0.20570592918804714  0.8427524155295932  1.0000
  C   C9        1.0  0.28140990741095734  0.21468671627621863  0.3720617859728072  1.0000
  C   C10       1.0  0.21859009273830785  0.7146867162887782  0.1279382140516025  1.0000
  C   C11       1.0  0.718590092887573  0.7853132837489005  0.6279382140760122  1.0000
  C   C12       1.0  0.7814099075602224  0.285313283736341  0.8720617859972168  1.0000
  C   C13       1.0  0.0962312325796107  0.21527857847452705  0.4378277290157558  1.0000
  C   C14       1.0  0.4037687675696544  0.7152785784870866  0.06217227100865385  1.0000
  C   C15       1.0  0.9037687677189196  0.7847214215505922  0.5621722710330634  1.0000
  C   C16       1.0  0.5962312327288758  0.2847214215380326  0.9378277290401655  1.0000
  C   C17       1.0  0.02370861433094391  0.2951075394521296  0.47241235603774534  1.0000
  C   C18       1.0  0.47629138581832126  0.7951075394646892  0.02758764398666434  1.0000
  C   C19       1.0  0.9762913859675862  0.7048924605729897  0.527587644011074  1.0000
  C   C20       1.0  0.5237086144802091  0.20489246056043006  0.972412356062155  1.0000
  N   N1        1.0  0.1291693537997476  0.371171573728051  0.44324561933294593  1.0000
  N   N2        1.0  0.3708306463495175  0.8711715737406106  0.05675438069146373  1.0000
  N   N3        1.0  0.8708306464987826  0.6288284262970683  0.5567543807158735  1.0000
  N   N4        1.0  0.6291693539490126  0.12882842628450866  0.9432456193573557  1.0000
  I   I1        1.0  0.9999999997791802  0.5000000000125596  0.4999999999374648  1.0000
  I   I2        1.0  0.500000000370085  0.0  8.694489088954497e-11  1.0000
  I   I3        1.0  0.3663327463428716  0.32937882684309344  0.6760732611575362  1.0000
  I   I4        1.0  0.13366725345159663  0.8293788268556531  0.8239267393380236  1.0000
  I   I5        1.0  0.6336672539556586  0.6706211731820259  0.32392673889128315  1.0000
  I   I6        1.0  0.8663327468469336  0.17062117316946618  0.1760732607107957  1.0000
  I   I7        1.0  0.1842128652060328  0.47975661658447943  0.7582521015676901  1.0000
  I   I8        1.0  0.3157871368037386  0.979756616597039  0.741747898335997  1.0000
  I   I9        1.0  0.8157871350924975  0.5202433834406398  0.2417478984811293  1.0000
  I   I10       1.0  0.6842128634079488  0.02024338342808017  0.25825210111660185  1.0000
  I   I11       1.0  0.9042569721799032  0.631137791338411  0.8728604878451559  1.0000
  I   I12       1.0  0.5957430259657462  0.1311377913258514  0.6271395122237255  1.0000
  I   I13       1.0  0.09574302811862705  0.3688622086867082  0.12713951220366349  1.0000
  I   I14       1.0  0.40425697203063804  0.8688622086992679  0.3728604878207462  1.0000
  I   I15       1.0  0.0  0.5000000000125596  0.0  1.0000
  I   I16       1.0  0.5000000001492652  0.0  0.5000000000244096  1.0000
