data_image0
_chemical_formula_structural       H40C64N18
_chemical_formula_sum              "H40 C64 N18"
_cell_length_a       14.178286942383206
_cell_length_b       13.459517469919945
_cell_length_c       7.698895042121035
_cell_angle_alpha    104.0836663789677
_cell_angle_beta     110.08186083331735
_cell_angle_gamma    93.11195603675381

_space_group_name_H-M_alt    "P 1"
_space_group_IT_number       1

loop_
  _space_group_symop_operation_xyz
  'x, y, z'

loop_
  _atom_site_type_symbol
  _atom_site_label
  _atom_site_symmetry_multiplicity
  _atom_site_fract_x
  _atom_site_fract_y
  _atom_site_fract_z
  _atom_site_occupancy
  H   H1        1.0  0.15067866021835882  0.007777585762101079  0.8935574463518468  1.0000
  H   H2        1.0  0.8493213401311264  0.9922224142671084  0.10644255458045906  1.0000
  H   H3        1.0  0.2213540270467627  0.15822333032512023  0.1714965187252217  1.0000
  H   H4        1.0  0.7786459725592043  0.8417766697139772  0.8285034804321012  1.0000
  H   H5        1.0  0.10222093739979157  0.0016851473586078094  0.5024642724643956  1.0000
  H   H6        1.0  0.8977790622061755  0.9983148526804896  0.49753572669292734  1.0000
  H   H7        1.0  0.02805458385859438  0.8523575349718744  0.2218667822295686  1.0000
  H   H8        1.0  0.9719454157473727  0.14764246506722303  0.7781332169277543  1.0000
  H   H9        1.0  0.3438562200583003  0.9616188102208781  0.5284071069326721  1.0000
  H   H10       1.0  0.6561437795415559  0.03838118981684253  0.4715928935190463  1.0000
  H   H11       1.0  0.4116377983443937  0.11807658886772791  0.7958193017807068  1.0000
  H   H12       1.0  0.5883622012615735  0.8819234111713694  0.2041806973766162  1.0000
  H   H13       1.0  0.38059853721065  0.9450231398949798  0.18850959939326253  1.0000
  H   H14       1.0  0.619401462389206  0.0549768601427409  0.8114904010584559  1.0000
  H   H15       1.0  0.3112782778901383  0.7889997264835015  0.920658211689959  1.0000
  H   H16       1.0  0.6887217217097177  0.2110002735542191  0.07934178876175964  1.0000
  H   H17       1.0  0.33998139290596185  0.5496911134093473  0.8670623818898844  1.0000
  H   H18       1.0  0.6600186067000055  0.45030888662975016  0.13293761726743855  1.0000
  H   H19       1.0  0.49825845987964823  0.6452817278353985  0.14273313979816085  1.0000
  H   H20       1.0  0.5017415403466543  0.3547182714189433  0.8572668607241929  1.0000
  H   H21       1.0  0.5205185122458496  0.6343352460654829  0.4749241508267568  1.0000
  H   H22       1.0  0.47948148735400653  0.36566475397223763  0.5250758496249616  1.0000
  H   H23       1.0  0.3846684584976321  0.5236383948826265  0.5167372761423777  1.0000
  H   H24       1.0  0.615331541851853  0.47636160514658293  0.48326272478992827  1.0000
  H   H25       1.0  0.23161078967889107  0.4319391283506401  0.22515334792851122  1.0000
  H   H26       1.0  0.768389209927076  0.5680608716884574  0.7748466512288117  1.0000
  H   H27       1.0  0.20525362664959135  0.4273036709761322  0.7459643677581687  1.0000
  H   H28       1.0  0.7947463737060048  0.5726963290544541  0.25403563187974176  1.0000
  H   H29       1.0  0.1676361542344229  0.3636801907943194  0.8959663779139517  1.0000
  H   H30       1.0  0.8323638453715443  0.636319809244778  0.10403362124337125  1.0000
  H   H31       1.0  0.12337810634496257  0.57731435570017  0.8447625272858926  1.0000
  H   H32       1.0  0.8766218940106336  0.42268564433041633  0.1552374723520178  1.0000
  H   H33       1.0  0.09125738475111127  0.5202953634185643  0.005556380691404547  1.0000
  H   H34       1.0  0.9087426148487447  0.4797046366191563  0.9944436197603139  1.0000
  H   H35       1.0  0.014531332472537902  0.4220534093435691  0.5657470950346446  1.0000
  H   H36       1.0  0.9854686671334292  0.5779465906955283  0.43425290412267825  1.0000
  H   H37       1.0  0.9437004136369523  0.4913918271652792  0.6904396257809666  1.0000
  H   H38       1.0  0.05629958671253272  0.5086081728639303  0.30956037515133933  1.0000
  H   H39       1.0  0.9796055674795637  0.3719537564555656  0.7310466441186709  1.0000
  H   H40       1.0  0.020394432869921257  0.6280462435736439  0.2689533568136349  1.0000
  C   C1        1.0  0.08411115113933756  0.9173305335154789  0.03471766758190474  1.0000
  C   C2        1.0  0.9158888492162586  0.0826694665151075  0.9652823320560056  1.0000
  C   C3        1.0  0.14087894695391265  0.006158827904046789  0.02703260919296334  1.0000
  C   C4        1.0  0.8591210526459435  0.9938411721336738  0.972967391258755  1.0000
  C   C5        1.0  0.18134664280340124  0.09066246989366168  0.1842928942940307  1.0000
  C   C6        1.0  0.8186533575460837  0.9093375301355479  0.8157071066382752  1.0000
  C   C7        1.0  0.16935153274832557  0.09156103788650205  0.36132859778784887  1.0000
  C   C8        1.0  0.8306484668576417  0.9084389621525955  0.6386714013694741  1.0000
  C   C9        1.0  0.11258729686326692  0.002711643169300815  0.3691373475811343  1.0000
  C   C10       1.0  0.8874127027427003  0.9972883568697966  0.6308626515761886  1.0000
  C   C11       1.0  0.07077622847935758  0.9189183787842854  0.21141394980244238  1.0000
  C   C12       1.0  0.9292237711204984  0.08108162125343527  0.7885860506492759  1.0000
  C   C13       1.0  0.04057841733549359  0.8308102839591879  0.8721155861484048  1.0000
  C   C14       1.0  0.9594215830139915  0.16918971607002142  0.12788441478390103  1.0000
  C   C15       1.0  0.21273363613057622  0.17764758337895556  0.5257137755436916  1.0000
  C   C16       1.0  0.7872663634753909  0.8223524166601418  0.47428622361363143  1.0000
  C   C17       1.0  0.9808868865764793  0.7442732736878168  0.8757240819107569  1.0000
  C   C18       1.0  0.01911311302337683  0.2557267263499038  0.12427591854096146  1.0000
  C   C19       1.0  0.051912334157342956  0.826011286204243  0.6952931272896244  1.0000
  C   C20       1.0  0.9480876661982531  0.1739887138263433  0.3047068723482859  1.0000
  C   C21       1.0  0.2657634289604021  0.26845838877237077  0.522640897461706  1.0000
  C   C22       1.0  0.7342365713951939  0.7315416112582156  0.47735910217620453  1.0000
  C   C23       1.0  0.20437079703631172  0.1786802517337034  0.7032674065470933  1.0000
  C   C24       1.0  0.7956292033192844  0.821319748296883  0.2967325930908173  1.0000
  C   C25       1.0  0.320807938761847  0.8625886144430316  0.7016833455293437  1.0000
  C   C26       1.0  0.6791920615937491  0.13741138558755467  0.2983166541085667  1.0000
  C   C27       1.0  0.3505933034878719  0.9584986769487416  0.6721824877153553  1.0000
  C   C28       1.0  0.6494066961180953  0.0415013230903558  0.32781751144196764  1.0000
  C   C29       1.0  0.38841456894812876  0.04660920189968296  0.8227038148939537  1.0000
  C   C30       1.0  0.6115854314013562  0.9533907981295264  0.17729618603835193  1.0000
  C   C31       1.0  0.39893494743629926  0.04532381601614168  0.013736880687949822  1.0000
  C   C32       1.0  0.6010650521696679  0.9546761840229558  0.9862631184693732  1.0000
  C   C33       1.0  0.3716524965507143  0.9486424154557055  0.04394505905028018  1.0000
  C   C34       1.0  0.6283475038048817  0.051357584574880925  0.9560549405876304  1.0000
  C   C35       1.0  0.3335318610393306  0.8607817118847447  0.893472408158942  1.0000
  C   C36       1.0  0.6664681385666367  0.13921828815435278  0.1065275909983809  1.0000
  C   C37       1.0  0.2783696977180639  0.7714960336898836  0.5470713528041543  1.0000
  C   C38       1.0  0.7216303026375321  0.22850396634070275  0.45292864683375617  1.0000
  C   C39       1.0  0.4345844532769657  0.13656936436585596  0.16872670790377892  1.0000
  C   C40       1.0  0.5654155470725194  0.8634306356633537  0.8312732930285271  1.0000
  C   C41       1.0  0.2486671214225811  0.678509026950845  0.5812538486022348  1.0000
  C   C42       1.0  0.7513328789269039  0.3214909730783644  0.4187461523300711  1.0000
  C   C43       1.0  0.26474977644289943  0.7677892589497078  0.35497010592477063  1.0000
  C   C44       1.0  0.7352502231569567  0.23221074108801262  0.6450298945269477  1.0000
  C   C45       1.0  0.45714346581281123  0.23477606887534996  0.1445695449819754  1.0000
  C   C46       1.0  0.5428565345427848  0.7652239311552363  0.855430454655935  1.0000
  C   C47       1.0  0.44691107446354383  0.13537489072668132  0.35838621804553117  1.0000
  C   C48       1.0  0.5530889258859412  0.8646251093025282  0.6416137828867748  1.0000
  C   C49       1.0  0.3550372296482986  0.5473427261901141  0.014226476390876713  1.0000
  C   C50       1.0  0.6449627699515574  0.45265727384760646  0.9857735240608416  1.0000
  C   C51       1.0  0.44132223773658946  0.6000089032941357  0.16892396055286324  1.0000
  C   C52       1.0  0.5586777626190067  0.3999910967364507  0.8310760390850473  1.0000
  C   C53       1.0  0.45272017761653893  0.5934366830494746  0.3526870929215105  1.0000
  C   C54       1.0  0.5472798227329462  0.40656331697973486  0.6473129080107953  1.0000
  C   C55       1.0  0.3781161226712425  0.5325133933545779  0.37676830459669775  1.0000
  C   C56       1.0  0.6218838769347247  0.46748660668451947  0.6232316945606252  1.0000
  C   C57       1.0  0.2930498943006111  0.4810044632133053  0.21794603534493473  1.0000
  C   C58       1.0  0.7069501051821735  0.5189955360509244  0.7820539634024358  1.0000
  C   C59       1.0  0.18783361446907265  0.4389136063060457  0.8768471944674803  1.0000
  C   C60       1.0  0.8121663851307834  0.561086393731675  0.12315280598423808  1.0000
  C   C61       1.0  0.10214989174460269  0.5031116051536764  0.867303046706104  1.0000
  C   C62       1.0  0.8978501078552533  0.4968883948840442  0.13269695374561416  1.0000
  C   C63       1.0  0.0046390501246008405  0.44376087867115005  0.7048492778006622  1.0000
  C   C64       1.0  0.9953609494752553  0.5562391213665705  0.2951507226510562  1.0000
  N   N1        1.0  0.9297581301446897  0.6734881849730716  0.877209730185491  1.0000
  N   N2        1.0  0.07024187020479537  0.3265118150561379  0.12279027074681502  1.0000
  N   N3        1.0  0.05935360944692581  0.8216444203834092  0.5468116787674746  1.0000
  N   N4        1.0  0.9406463909086705  0.17835557964717716  0.4531883208704358  1.0000
  N   N5        1.0  0.3085242247062193  0.3456329352354429  0.52357448357634  1.0000
  N   N6        1.0  0.6914757756432658  0.6543670647937666  0.47642551735596583  1.0000
  N   N7        1.0  0.19932053127600838  0.18113379318633643  0.8529212321183498  1.0000
  N   N8        1.0  0.8006794690795878  0.8188662068442499  0.1470787675195607  1.0000
  N   N9        1.0  0.22605410863764633  0.6022626302180268  0.614677497512369  1.0000
  N   N10       1.0  0.7739458917118386  0.39773736981118274  0.3853225034199369  1.0000
  N   N11       1.0  0.25412831270352565  0.7637664301026503  0.19544724408106728  1.0000
  N   N12       1.0  0.7458716868963307  0.2362335699350704  0.8045527563706512  1.0000
  N   N13       1.0  0.4760233510492015  0.3173678302249972  0.12937147022794232  1.0000
  N   N14       1.0  0.5239766485567656  0.6826321698141002  0.8706285289293806  1.0000
  N   N15       1.0  0.457241189650412  0.1348195373116059  0.5158024922979897  1.0000
  N   N16       1.0  0.5427588098262617  0.8651804619512471  0.4841975077437764  1.0000
  N   N17       1.0  0.28268584080559883  0.48986369975901367  0.04118044835094213  1.0000
  N   N18       1.0  0.7173141588003682  0.5101363002800837  0.9588195508063809  1.0000
