data_image0
_chemical_formula_structural       H14C10N8O4F2S2
_chemical_formula_sum              "H14 C10 N8 O4 F2 S2"
_cell_length_a       6.120269312834512
_cell_length_b       7.045583964799841
_cell_length_c       10.627269145175378
_cell_angle_alpha    101.68071082944313
_cell_angle_beta     98.4372760982447
_cell_angle_gamma    114.3890424266816

_space_group_name_H-M_alt    "P 1"
_space_group_IT_number       1

loop_
  _space_group_symop_operation_xyz
  'x, y, z'

loop_
  _atom_site_type_symbol
  _atom_site_label
  _atom_site_symmetry_multiplicity
  _atom_site_fract_x
  _atom_site_fract_y
  _atom_site_fract_z
  _atom_site_occupancy
  H   H1        1.0  0.9232897931723224  0.3061587455605507  0.270068269046331  1.0000
  H   H2        1.0  0.07671020600868479  0.6938412550966515  0.7299317314068987  1.0000
  H   H3        1.0  0.751451474163745  0.21898096313582258  0.10501835746740282  1.0000
  H   H4        1.0  0.2485485250172621  0.7810190375213795  0.8949816429858268  1.0000
  H   H5        1.0  0.6986186100569761  0.1719383486477644  0.4257498720777574  1.0000
  H   H6        1.0  0.30138138827760297  0.82806165038454  0.5742501271422822  1.0000
  H   H7        1.0  0.37336384899482683  0.032596051915928584  0.3759417580967467  1.0000
  H   H8        1.0  0.6266361509925754  0.9674039471183608  0.6240582412619518  1.0000
  H   H9        1.0  0.5843202470000393  0.734408660339859  0.05536202553934567  1.0000
  H   H10       1.0  0.4156797538337912  0.2655913403193283  0.9446379750525427  1.0000
  H   H11       1.0  0.9853523754214171  0.8740947360050257  0.19631721039136413  1.0000
  H   H12       1.0  0.014647624565883373  0.12590526302477142  0.8036827899076938  1.0000
  H   H13       1.0  0.702543510683713  0.6166747142881128  0.48820497292784404  1.0000
  H   H14       1.0  0.2974564901501174  0.3833252863710744  0.5117950276640445  1.0000
  C   C1        1.0  0.5360896008842194  0.1336943075419086  0.23096530683645353  1.0000
  C   C2        1.0  0.4639103999496111  0.8663056931172787  0.7690346937554349  1.0000
  C   C3        1.0  0.8787025086548211  0.761877764266477  0.35556304049702786  1.0000
  C   C4        1.0  0.12129749217900918  0.23812223639270996  0.6444369600948606  1.0000
  C   C5        1.0  0.5981226124880785  0.7005089135217855  0.1513844533515889  1.0000
  C   C6        1.0  0.4018773883458535  0.2994910871418937  0.8486155462999401  1.0000
  C   C7        1.0  0.39844058482797406  0.5824655513391679  0.192596500534542  1.0000
  C   C8        1.0  0.6015594135065032  0.41753444768864434  0.8074034996258572  1.0000
  C   C9        1.0  0.427484873188377  0.5487197754217419  0.32155760930453037  1.0000
  C   C10       1.0  0.5725151267989234  0.4512802236080553  0.6784423909945276  1.0000
  N   N1        1.0  0.7528518577591055  0.23960616672253987  0.20290218792779244  1.0000
  N   N2        1.0  0.24714814307472494  0.7603938339366472  0.7970978126640961  1.0000
  N   N3        1.0  0.5370368021526364  0.12351519612404466  0.3556654134176884  1.0000
  N   N4        1.0  0.4629631970283709  0.8764848045331576  0.6443345870355413  1.0000
  N   N5        1.0  0.8313100127227219  0.7882726798339403  0.23203405601318086  1.0000
  N   N6        1.0  0.1686899881112103  0.2117273208297389  0.767965943638348  1.0000
  N   N7        1.0  0.6718610006383756  0.6435788857734006  0.394981969358855  1.0000
  N   N8        1.0  0.32813899854273326  0.3564211148882936  0.6050180301540152  1.0000
  O   O1        1.0  0.09396674315028294  0.8400742000977354  0.42742718800157775  1.0000
  O   O2        1.0  0.9060332576835475  0.15992580056145186  0.5725728125903107  1.0000
  O   O3        1.0  0.2528265612663755  0.4444864031171019  0.3679714556983316  1.0000
  O   O4        1.0  0.7471734370682035  0.5555135959152024  0.6320285435217081  1.0000
  F   F1        1.0  0.16632562659672442  0.4949806945161519  0.11295301186165395  1.0000
  F   F2        1.0  0.8336743725842828  0.5050193061410503  0.8870469885915758  1.0000
  S   S1        1.0  0.26587191727239834  0.022670265168198565  0.10842251825944159  1.0000
  S   S2        1.0  0.734128081062079  0.9773297338596137  0.8915774819009574  1.0000
