data_image0
_chemical_formula_structural       H24C44N4O4Br8
_chemical_formula_sum              "H24 C44 N4 O4 Br8"
_cell_length_a       6.6339943921052855
_cell_length_b       9.889037442835088
_cell_length_c       15.162018903822052
_cell_angle_alpha    90.0
_cell_angle_beta     102.15570985722456
_cell_angle_gamma    90.0

_space_group_name_H-M_alt    "P 1"
_space_group_IT_number       1

loop_
  _space_group_symop_operation_xyz
  'x, y, z'

loop_
  _atom_site_type_symbol
  _atom_site_label
  _atom_site_symmetry_multiplicity
  _atom_site_fract_x
  _atom_site_fract_y
  _atom_site_fract_z
  _atom_site_occupancy
  H   H1        1.0  0.5776359756565548  0.5265225589546623  0.31983965352599314  1.0000
  H   H2        1.0  0.07763597555795318  0.4734774407586477  0.819839653167443  1.0000
  H   H3        1.0  0.6777983617198591  0.46992561276699135  0.2297807205479988  1.0000
  H   H4        1.0  0.17779836193637838  0.5300743869463186  0.7297807208641048  1.0000
  H   H5        1.0  0.8186818557125212  0.7291355029931849  0.9645017376429624  1.0000
  H   H6        1.0  0.3186818563342128  0.2708644967201252  0.46450173770357717  1.0000
  H   H7        1.0  0.73418798515101  0.7837749543172857  0.05950786010811206  1.0000
  H   H8        1.0  0.23418798536752922  0.21622504640724494  0.5595078604242181  1.0000
  H   H9        1.0  0.6491817780679773  0.33072045777009196  0.12666370439434121  1.0000
  H   H10       1.0  0.1491817782844966  0.669279541943218  0.6266637047104472  1.0000
  H   H11       1.0  0.5910901125996183  0.16169622667962888  0.0068294748375559355  1.0000
  H   H12       1.0  0.09109011250101662  0.8383037730336811  0.5068294744790058  1.0000
  H   H13       1.0  0.3895076853624619  0.9703427836601449  0.9267793732974843  1.0000
  H   H14       1.0  0.8895076851459427  0.029657217064385913  0.4267793729813784  1.0000
  H   H15       1.0  0.09782622256707564  0.8094275167093716  0.910967282505877  1.0000
  H   H16       1.0  0.5978262223505565  0.1905724840151591  0.4109672821897712  1.0000
  H   H17       1.0  0.7722456718549691  0.912671853269118  0.16182241384321241  1.0000
  H   H18       1.0  0.2722456720714882  0.08732814745541272  0.6618224141593183  1.0000
  H   H19       1.0  0.8251764156892424  0.08450488986726104  0.27836867223692696  1.0000
  H   H20       1.0  0.3251764155906406  0.915495109846049  0.7783686718783768  1.0000
  H   H21       1.0  0.004852460118194978  0.28393880357227247  0.3497251814800952  1.0000
  H   H22       1.0  0.5048524610059202  0.7160611961410375  0.84972518142376  1.0000
  H   H23       1.0  0.2908359433605995  0.45107221160659  0.36462494672062146  1.0000
  H   H24       1.0  0.7908359427389079  0.54892778810672  0.8646249466600066  1.0000
  C   C1        1.0  0.12539039947218986  0.5290905166701423  0.08761198439613738  1.0000
  C   C2        1.0  0.625390400359915  0.4709094840543884  0.5876119843398022  1.0000
  C   C3        1.0  0.29937505728494795  0.5977447202692905  0.07896532689909169  1.0000
  C   C4        1.0  0.7993750566632565  0.40225527944401945  0.5789653268384769  1.0000
  C   C5        1.0  0.39457243075511195  0.7012077454539412  0.14320103037731682  1.0000
  C   C6        1.0  0.8945724301334205  0.29879225527058956  0.643201030316702  1.0000
  C   C7        1.0  0.29357086400182897  0.7238174545679457  0.21930500078774467  1.0000
  C   C8        1.0  0.7935708633801373  0.27618254615658505  0.7193050007271298  1.0000
  C   C9        1.0  0.11687737492745887  0.6566394421637834  0.22704371670779883  1.0000
  C   C10       1.0  0.6168773758151841  0.3433605585607473  0.7270437166514636  1.0000
  C   C11       1.0  0.021305545685931477  0.5544562533710123  0.16194616465093006  1.0000
  C   C12       1.0  0.52130554506424  0.4455437463422976  0.6619461645903153  1.0000
  C   C13       1.0  0.4131854732391722  0.3691692392817326  0.2548046179012585  1.0000
  C   C14       1.0  0.9131854741268973  0.6308307604315774  0.7548046178449233  1.0000
  C   C15       1.0  0.3898092361146301  0.26775712351240577  0.18480590621733342  1.0000
  C   C16       1.0  0.8898092370023551  0.7322428762009042  0.6848059061609982  1.0000
  C   C17       1.0  0.5212121014361408  0.26042314784295906  0.12238446251931083  1.0000
  C   C18       1.0  0.02121210165266003  0.7395768518703509  0.6223844628354168  1.0000
  C   C19       1.0  0.48881920015065183  0.16467874850447742  0.05456181772178125  1.0000
  C   C20       1.0  0.9888192010383768  0.8353212512088325  0.5545618176654459  1.0000
  C   C21       1.0  0.3259788008541074  0.06999081498083294  0.04512866345407017  1.0000
  C   C22       1.0  0.8259788017418326  0.9300091847324771  0.5451286633977349  1.0000
  C   C23       1.0  0.2874873353938879  0.9728853880486252  0.974571055390413  1.0000
  C   C24       1.0  0.7874873351773687  0.027114611664684696  0.47457105507430714  1.0000
  C   C25       1.0  0.12587311460977327  0.8831274651839376  0.9658099428127679  1.0000
  C   C26       1.0  0.625873114393254  0.11687253452937237  0.4658099424966619  1.0000
  C   C27       1.0  0.9934185970614714  0.8824197633433434  0.028526821669606826  1.0000
  C   C28       1.0  0.4934185969628696  0.11758023738118738  0.5285268213110568  1.0000
  C   C29       1.0  0.027281634221239543  0.9789692622727633  0.10098637510050525  1.0000
  C   C30       1.0  0.5272816335995479  0.021030738451767457  0.6009863750398904  1.0000
  C   C31       1.0  0.8986750859538737  0.9837426014650625  0.16471920237416832  1.0000
  C   C32       1.0  0.39867508466097623  0.01625739824824739  0.6647192026859946  1.0000
  C   C33       1.0  0.9284670813634675  0.08060396824339261  0.2312029557303025  1.0000
  C   C34       1.0  0.42846708157998675  0.9193960324811381  0.7312029560464084  1.0000
  C   C35       1.0  0.08758680250809785  0.17726510190029554  0.2386071007111386  1.0000
  C   C36       1.0  0.5875868022015271  0.8227348978130143  0.7386071013251798  1.0000
  C   C37       1.0  0.11385165253717106  0.27968461197443595  0.30509707244869827  1.0000
  C   C38       1.0  0.6138516519154794  0.7203153887500948  0.8050970723880834  1.0000
  C   C39       1.0  0.2715763668452832  0.3719276654842508  0.3133759027526189  1.0000
  C   C40       1.0  0.7715763662235916  0.6280723342290592  0.813375902692004  1.0000
  C   C41       1.0  0.2251116624730646  0.17249116305408307  0.17770017892825227  1.0000
  C   C42       1.0  0.725111661851373  0.8275088366592268  0.6777001788676374  1.0000
  C   C43       1.0  0.19326207456140057  0.07309587552666467  0.10804027823343969  1.0000
  C   C44       1.0  0.6932620754491258  0.9269041241866453  0.6080402781771044  1.0000
  N   N1        1.0  0.5627395159581378  0.4632100511783236  0.26612885408044  1.0000
  N   N2        1.0  0.062739516174657  0.5367899495462072  0.766128854396546  1.0000
  N   N3        1.0  0.840144694829502  0.7909177030841212  0.0189905136836696  1.0000
  N   N4        1.0  0.34014469504602146  0.2090822976404095  0.5189905139997756  1.0000
  O   O1        1.0  0.5492094311556504  0.7677700821631538  0.13347583042767303  1.0000
  O   O2        1.0  0.04920943137216955  0.23222991755015618  0.6334758307437789  1.0000
  O   O3        1.0  0.8615211527663708  0.4905645972161681  0.16813556765876808  1.0000
  O   O4        1.0  0.3615211526677691  0.5094354024971419  0.6681355673002182  1.0000
  Br  Br1       1.0  0.0004996046703034212  0.3962860169812942  0.003737543666516297  1.0000
  Br  Br2       1.0  0.5004996040486118  0.6037139827320158  0.5037375436059014  1.0000
  Br  Br3       1.0  0.43060140716762957  0.5617425155999217  0.9827204354365432  1.0000
  Br  Br4       1.0  0.9306014072662312  0.4382574841133882  0.4827204357950931  1.0000
  Br  Br5       1.0  0.4227523137218478  0.8515073725502955  0.30590092917935974  1.0000
  Br  Br6       1.0  0.9227523146095729  0.1484926271630144  0.8059009291230245  1.0000
  Br  Br7       1.0  0.9832235215253384  0.6900732401356529  0.3233037271260595  1.0000
  Br  Br8       1.0  0.4832235214267368  0.30992675957765714  0.8233037267675095  1.0000
