data_image0
_chemical_formula_structural       H38C40N4O4I2
_chemical_formula_sum              "H38 C40 N4 O4 I2"
_cell_length_a       5.9106025182453275
_cell_length_b       10.591620971364398
_cell_length_c       13.957663018877165
_cell_angle_alpha    86.50285075910367
_cell_angle_beta     83.776977098868
_cell_angle_gamma    86.49826984057978

_space_group_name_H-M_alt    "P 1"
_space_group_IT_number       1

loop_
  _space_group_symop_operation_xyz
  'x, y, z'

loop_
  _atom_site_type_symbol
  _atom_site_label
  _atom_site_symmetry_multiplicity
  _atom_site_fract_x
  _atom_site_fract_y
  _atom_site_fract_z
  _atom_site_occupancy
  H   H1        1.0  0.4663630850879661  0.2522442325442174  0.13125239465913308  1.0000
  H   H2        1.0  0.5336369156843045  0.7477557672771363  0.8687476057042934  1.0000
  H   H3        1.0  0.6190416007247049  0.29313649883708237  0.786579810458218  1.0000
  H   H4        1.0  0.38095839855926095  0.7068635010345883  0.2134201891741827  1.0000
  H   H5        1.0  0.5167453742836451  0.47036038196393937  0.8987554268253106  1.0000
  H   H6        1.0  0.4832546264886256  0.5296396178574143  0.10124457353811589  1.0000
  H   H7        1.0  0.17354494659059785  0.4527125120428454  0.019687830276953006  1.0000
  H   H8        1.0  0.8264550524923674  0.5472874877780823  0.9803121700771709  1.0000
  H   H9        1.0  0.8306279578081588  0.3377388723709714  0.08437368108009514  1.0000
  H   H10       1.0  0.16937204316511256  0.6622611275011253  0.9156263185616083  1.0000
  H   H11       1.0  0.6736633630230802  0.005016112583840276  0.9451126706328034  1.0000
  H   H12       1.0  0.3263366379501909  0.9949838872882566  0.054887329008899914  1.0000
  H   H13       1.0  0.019760077352585045  0.021661852861785437  0.8321854469476718  1.0000
  H   H14       1.0  0.9802399234196857  0.9783381469595683  0.16781455341575463  1.0000
  H   H15       1.0  0.2747905227584355  0.10117070399977388  0.7136766301053329  1.0000
  H   H16       1.0  0.7252094780138352  0.8988292958215797  0.2863233702580937  1.0000
  H   H17       1.0  0.40867438867413297  0.007354738295089468  0.8077899676213588  1.0000
  H   H18       1.0  0.5913256104088322  0.9926452615258382  0.19221003273276516  1.0000
  H   H19       1.0  0.5673710586271221  0.12056246739002943  0.7291633827257322  1.0000
  H   H20       1.0  0.4326289423461491  0.8794375324820672  0.270836616915971  1.0000
  H   H21       1.0  0.27407147007687255  0.3298175239818963  0.46168333774777015  1.0000
  H   H22       1.0  0.7259285306953982  0.6701824758394574  0.5383166626156564  1.0000
  H   H23       1.0  0.35507135310688076  0.5558768016617583  0.40931623382371285  1.0000
  H   H24       1.0  0.6449286458708462  0.4441231991051414  0.5906837665295085  1.0000
  H   H25       1.0  0.7336057343108654  0.6006941508293232  0.31818001648566  1.0000
  H   H26       1.0  0.2663942666624059  0.39930584904277355  0.6818199831560432  1.0000
  H   H27       1.0  0.0925369512641364  0.5196845662113959  0.22972681585364244  1.0000
  H   H28       1.0  0.9074630497091348  0.48031543366070095  0.7702731837880609  1.0000
  H   H29       1.0  0.24785184209232997  0.11627142462430837  0.22953862142458198  1.0000
  H   H30       1.0  0.7521481569906353  0.8837285751966193  0.7704613789295419  1.0000
  H   H31       1.0  0.8988990456269932  0.07586072436508495  0.33448129140756505  1.0000
  H   H32       1.0  0.10110095514527752  0.9241392754562686  0.6655187089558615  1.0000
  H   H33       1.0  0.363515201968315  0.13661522538627274  0.4788873052792135  1.0000
  H   H34       1.0  0.6364847973156509  0.8633847744853979  0.5211126943531871  1.0000
  H   H35       1.0  0.6609359296136933  0.08718770930605417  0.46867299885461844  1.0000
  H   H36       1.0  0.3390640696702727  0.9128122905656165  0.5313270007777823  1.0000
  H   H37       1.0  0.4944022776013936  0.07234834394545747  0.369386403724829  1.0000
  H   H38       1.0  0.5055977233718777  0.9276516559266392  0.6306135959168743  1.0000
  C   C1        1.0  0.4649692335432873  0.29515232712840045  0.8371701237047333  1.0000
  C   C2        1.0  0.5350307657406786  0.7048476727432703  0.16282987592766726  1.0000
  C   C3        1.0  0.4083585499150156  0.3904533839366253  0.9017744559253296  1.0000
  C   C4        1.0  0.5916414508572551  0.6095466158847285  0.09822554443809692  1.0000
  C   C5        1.0  0.21536353195431301  0.3820802149812394  0.9662183189453645  1.0000
  C   C6        1.0  0.7846364688179577  0.6179197848401142  0.033781681418062086  1.0000
  C   C7        1.0  0.8700175412813426  0.26931724610644914  0.0288819075306752  1.0000
  C   C8        1.0  0.12998245800262356  0.7306827537652214  0.9711180921017254  1.0000
  C   C9        1.0  0.7265499917049909  0.1694658755551014  0.02420255884232016  1.0000
  C   C10       1.0  0.2734500073779745  0.8305341242658264  0.9757974415118037  1.0000
  C   C11       1.0  0.7860679673509621  0.08220945551628692  0.9496157982415173  1.0000
  C   C12       1.0  0.21393203182776546  0.9177905453013561  0.050384201389980794  1.0000
  C   C13       1.0  0.9800570319964711  0.09149950745517432  0.8862826896187204  1.0000
  C   C14       1.0  0.019942967086494245  0.9085004923657533  0.11371731073540353  1.0000
  C   C15       1.0  0.12738336126448413  0.1897873628310264  0.8931216175693426  1.0000
  C   C16       1.0  0.8726166377132427  0.8102126379358733  0.10687838278387869  1.0000
  C   C17       1.0  0.06842842262428128  0.28160486467784956  0.9643709266091605  1.0000
  C   C18       1.0  0.9315715782437515  0.7183951361402193  0.035629073031640084  1.0000
  C   C19       1.0  0.4001053110571123  0.09918675208469543  0.7667665478897319  1.0000
  C   C20       1.0  0.599894689916159  0.9008132477874013  0.2332334517519714  1.0000
  C   C21       1.0  0.43074115678923014  0.3546744110108063  0.417494310388533  1.0000
  C   C22       1.0  0.5692588424947358  0.6453255888608643  0.5825056892438677  1.0000
  C   C23       1.0  0.48030200416567836  0.47954870961136026  0.38896375807451594  1.0000
  C   C24       1.0  0.5196979949172871  0.5204512902095674  0.6110362422796078  1.0000
  C   C25       1.0  0.6857073168914417  0.5036945164995458  0.33659251436751497  1.0000
  C   C26       1.0  0.3142926822872858  0.4963054843180971  0.663407485263983  1.0000
  C   C27       1.0  0.048253493582052345  0.42267904679200136  0.25067753944021065  1.0000
  C   C28       1.0  0.9517465057019135  0.5773209530796694  0.7493224601921901  1.0000
  C   C29       1.0  0.19560007364531498  0.32096996064889094  0.22098944503212914  1.0000
  C   C30       1.0  0.8043999254376503  0.6790300391720366  0.7790105553219947  1.0000
  C   C31       1.0  0.13241308655738052  0.19562804259549627  0.25208913120984355  1.0000
  C   C32       1.0  0.8675869126213471  0.8043719582221467  0.7479108684216546  1.0000
  C   C33       1.0  0.9336454088869837  0.17306950958359565  0.30995068863794173  1.0000
  C   C34       1.0  0.06635459039698235  0.8269304902880752  0.690049310994459  1.0000
  C   C35       1.0  0.7822821241350479  0.27573913516053106  0.33766909668196315  1.0000
  C   C36       1.0  0.21771787494791747  0.7242608646603966  0.6623309036721606  1.0000
  C   C37       1.0  0.841078995217781  0.4023400564477738  0.3077963709264475  1.0000
  C   C38       1.0  0.15892100386518437  0.5976599433731538  0.6922036294276763  1.0000
  C   C39       1.0  0.5208607987290905  0.12943290970915905  0.42967732004486314  1.0000
  C   C40       1.0  0.47913920055487536  0.8705670901625117  0.5703226795875376  1.0000
  N   N1        1.0  0.32957570076268156  0.19854813897459075  0.8342042763740412  1.0000
  N   N2        1.0  0.6704242999043508  0.8014518617927352  0.16579572398848264  1.0000
  N   N3        1.0  0.5780232004396231  0.2576674169029577  0.39351039746395683  1.0000
  N   N4        1.0  0.42197679864334214  0.7423325829179698  0.6064896028901672  1.0000
  O   O1        1.0  0.5421888860608619  0.15249713155754424  0.08412799880958409  1.0000
  O   O2        1.0  0.45781111322310386  0.8475028683141267  0.9158720008228166  1.0000
  O   O3        1.0  0.39001978470987614  0.34067747056982134  0.1668333615390056  1.0000
  O   O4        1.0  0.60998021457409  0.6593225293018494  0.8331666380933951  1.0000
  I   I1        1.0  0.942897058972748  0.2159770255660697  0.6066807053704412  1.0000
  I   I2        1.0  0.05710294200052331  0.7840229743060272  0.3933192942712621  1.0000
