data_image0
_chemical_formula_structural       H36C28N12O16
_chemical_formula_sum              "H36 C28 N12 O16"
_cell_length_a       8.467666470656669
_cell_length_b       14.061094981338949
_cell_length_c       7.306508326921863
_cell_angle_alpha    90.0
_cell_angle_beta     99.89614248774414
_cell_angle_gamma    90.0

_space_group_name_H-M_alt    "P 1"
_space_group_IT_number       1

loop_
  _space_group_symop_operation_xyz
  'x, y, z'

loop_
  _atom_site_type_symbol
  _atom_site_label
  _atom_site_symmetry_multiplicity
  _atom_site_fract_x
  _atom_site_fract_y
  _atom_site_fract_z
  _atom_site_occupancy
  H   H1        1.0  0.9148260641660723  0.408706143271693  0.35474587797947066  1.0000
  H   H2        1.0  0.0851739362958823  0.9087061432240812  0.1452541221712067  1.0000
  H   H3        1.0  0.085173936544249  0.5912938573442654  0.6452541219688585  1.0000
  H   H4        1.0  0.9148260632157105  0.09129385668069517  0.854745877553301  1.0000
  H   H5        1.0  0.8610508843006285  0.2426666525280154  0.3646535361451774  1.0000
  H   H6        1.0  0.13894911614824376  0.7426666524804036  0.13534646263433292  1.0000
  H   H7        1.0  0.13894911640969285  0.7573333480879431  0.6353464638031516  1.0000
  H   H8        1.0  0.8610508833633489  0.25733334742437275  0.8646535370901748  1.0000
  H   H9        1.0  0.9820516072227489  0.0864923778421267  0.30349808176860005  1.0000
  H   H10       1.0  0.017948393239205798  0.5864923777945149  0.19650191838207726  1.0000
  H   H11       1.0  0.017948392288843918  0.9135076227738318  0.6965019179559077  1.0000
  H   H12       1.0  0.9820516074711156  0.41350762211026143  0.8034980815662519  1.0000
  H   H13       1.0  0.15314708748829273  0.07972962429226448  0.20302635891434362  1.0000
  H   H14       1.0  0.8468529129736619  0.5797296242446526  0.29697364123633374  1.0000
  H   H15       1.0  0.8468529132220287  0.9202703756125119  0.7969736410339855  1.0000
  H   H16       1.0  0.15314708773665942  0.42027037566012365  0.7030263587119954  1.0000
  H   H17       1.0  0.3137876490759938  0.26309115150061624  0.18734384475709412  1.0000
  H   H18       1.0  0.6862123513859608  0.7630911514530044  0.3126561553935832  1.0000
  H   H19       1.0  0.6862123516343275  0.7369088491153423  0.8126561551912349  1.0000
  H   H20       1.0  0.3137876481256319  0.23690884845177193  0.6873438443309245  1.0000
  H   H21       1.0  0.19029504497246152  0.4385831457780794  0.24564409641300858  1.0000
  H   H22       1.0  0.8097049542907644  0.9385831457304674  0.2543559035138474  1.0000
  H   H23       1.0  0.8097049545391312  0.561416854126697  0.7543559033114992  1.0000
  H   H24       1.0  0.19029504522082824  0.06141685417430883  0.7456440962106602  1.0000
  H   H25       1.0  0.43261151026303907  0.4021248876779563  0.5403103564861075  1.0000
  H   H26       1.0  0.5673884894969206  0.9021248876303445  0.9596896430360521  1.0000
  H   H27       1.0  0.5673884892485537  0.59787511222682  0.4596896432384003  1.0000
  H   H28       1.0  0.4326115100146723  0.09787511227443187  0.040310356688455645  1.0000
  H   H29       1.0  0.5899339414599297  0.24149255264305555  0.4672667482253479  1.0000
  H   H30       1.0  0.4100660590020248  0.7414925525954437  0.032733251925329394  1.0000
  H   H31       1.0  0.4100660592503916  0.7585074472617208  0.5327332517229811  1.0000
  H   H32       1.0  0.5899339417082965  0.2585074473093326  0.9672667480229997  1.0000
  H   H33       1.0  0.6606585119775635  0.9510690894093204  0.48629590516824345  1.0000
  H   H34       1.0  0.33934148728566255  0.4510690894569323  0.013704094758612517  1.0000
  H   H35       1.0  0.3393414875471116  0.048930910495455886  0.5137040959274313  1.0000
  H   H36       1.0  0.6606585122259303  0.548930910447844  0.9862959049658953  1.0000
  C   C1        1.0  0.08621955619038874  0.21342258650430068  0.27490586660201904  1.0000
  C   C2        1.0  0.9137804442715659  0.7134225864566888  0.2250941335486583  1.0000
  C   C3        1.0  0.9137804445199326  0.7865774134004757  0.72509413334631  1.0000
  C   C4        1.0  0.08621955524002685  0.2865774134480875  0.7749058661758493  1.0000
  C   C5        1.0  0.20156295827614035  0.2789039249933693  0.23273591848022795  1.0000
  C   C6        1.0  0.7984370421858143  0.7789039249457576  0.26726408167044935  1.0000
  C   C7        1.0  0.7984370412354523  0.7210960749114069  0.7672640812442797  1.0000
  C   C8        1.0  0.20156295852450704  0.22109607495901884  0.7327359182778796  1.0000
  C   C9        1.0  0.14051044610159488  0.3686397038693789  0.260345675020996  1.0000
  C   C10       1.0  0.8594895543603598  0.8686397038217671  0.23965432512968138  1.0000
  C   C11       1.0  0.8594895534230802  0.6313602960353973  0.7396543260746787  1.0000
  C   C12       1.0  0.14051044634996157  0.13136029608300925  0.7603456748186478  1.0000
  C   C13       1.0  0.6680190690159662  0.4156872212126552  0.4500841978977264  1.0000
  C   C14       1.0  0.33198093023417746  0.9156872211650434  0.049915800657962514  1.0000
  C   C15       1.0  0.33198093049562655  0.5843127786921211  0.5499158018267812  1.0000
  C   C16       1.0  0.6680190692774152  0.08431277873973293  0.9500841990665452  1.0000
  C   C17       1.0  0.517477020055733  0.4535129595855108  0.5013366509766892  1.0000
  C   C18       1.0  0.4825229797042264  0.9535129595378989  0.9986633485454702  1.0000
  C   C19       1.0  0.48252297945585976  0.5464870403192655  0.4986633487478184  1.0000
  C   C20       1.0  0.5174770198073663  0.046487040366877334  0.0013366511790374753  1.0000
  C   C21       1.0  0.6345504520493506  0.10520670132470249  0.4565826888645061  1.0000
  C   C22       1.0  0.3654495472007931  0.6052067019882729  0.0434173096911829  1.0000
  C   C23       1.0  0.3654495474622422  0.8947932985800738  0.5434173108600017  1.0000
  C   C24       1.0  0.6345504523107997  0.3947932986276857  0.9565826900333247  1.0000
  C   C25       1.0  0.5749755508307636  0.008723899537183779  0.48680174789913055  1.0000
  C   C26       1.0  0.42502444963119096  0.508723899489572  0.01319825225154676  1.0000
  C   C27       1.0  0.4250244486808291  0.9912761003675925  0.5131982518253771  1.0000
  C   C28       1.0  0.5749755510791303  0.4912761004152044  0.9868017476967822  1.0000
  N   N1        1.0  0.9981844495896457  0.3592363423121548  0.31523566592687463  1.0000
  N   N2        1.0  0.00181554967358037  0.8592363422645428  0.18476433399998132  1.0000
  N   N3        1.0  0.0018155499350294456  0.6407636575926217  0.6847643351688  1.0000
  N   N4        1.0  0.9981844498380122  0.1407636576402334  0.8152356657245262  1.0000
  N   N5        1.0  0.9647908786026067  0.26517662279847154  0.3222882882929824  1.0000
  N   N6        1.0  0.035209120660619174  0.7651766227508597  0.17771171163387353  1.0000
  N   N7        1.0  0.03520912090898588  0.7348233771063047  0.6777117114315253  1.0000
  N   N8        1.0  0.9647908788509735  0.2348233771539166  0.8222882880906343  1.0000
  N   N9        1.0  0.08592801704495867  0.11718817646754072  0.28168706805258065  1.0000
  N   N10       1.0  0.9140719834169958  0.617188176419929  0.21831293209809666  1.0000
  N   N11       1.0  0.914071982466634  0.8828118234372355  0.718312931671927  1.0000
  N   N12       1.0  0.08592801729332537  0.38281182348484744  0.7816870678502323  1.0000
  O   O1        1.0  0.6844125329348029  0.3257094377129292  0.44240787718027347  1.0000
  O   O2        1.0  0.3155874675271517  0.8257094376653173  0.05759212297040389  1.0000
  O   O3        1.0  0.3155874665767898  0.6742905621918471  0.5575921225442343  1.0000
  O   O4        1.0  0.684412533196252  0.17429056223945893  0.9424078783490922  1.0000
  O   O5        1.0  0.774902053788796  0.4736352495192253  0.4154484066784207  1.0000
  O   O6        1.0  0.22509794667315855  0.9736352494716135  0.08455159347225663  1.0000
  O   O7        1.0  0.22509794692152527  0.5263647510967332  0.5845515932699085  1.0000
  O   O8        1.0  0.7749020528515165  0.026364751144345014  0.9154484076234181  1.0000
  O   O9        1.0  0.5369776401170042  0.17533561598666014  0.4836173228935086  1.0000
  O   O10       1.0  0.46302236034495037  0.6753356159390483  0.01638267725716875  1.0000
  O   O11       1.0  0.4630223605933171  0.8246643839181161  0.5163826770548205  1.0000
  O   O12       1.0  0.5369776403653709  0.324664383965728  0.9836173226911604  1.0000
  O   O13       1.0  0.767202976732581  0.11643202269615162  0.40798385390819214  1.0000
  O   O14       1.0  0.23279702253064508  0.6164320226485398  0.09201614601866379  1.0000
  O   O15       1.0  0.23279702277901174  0.8835679779198069  0.5920161458163156  1.0000
  O   O16       1.0  0.7672029769809476  0.3835679779674187  0.9079838537058439  1.0000
