data_image0
_chemical_formula_structural       H26C18N2O16
_chemical_formula_sum              "H26 C18 N2 O16"
_cell_length_a       3.629802467946318
_cell_length_b       16.487280155039493
_cell_length_c       9.890050280565946
_cell_angle_alpha    90.0
_cell_angle_beta     92.89471732123879
_cell_angle_gamma    90.0

_space_group_name_H-M_alt    "P 1"
_space_group_IT_number       1

loop_
  _space_group_symop_operation_xyz
  'x, y, z'

loop_
  _atom_site_type_symbol
  _atom_site_label
  _atom_site_symmetry_multiplicity
  _atom_site_fract_x
  _atom_site_fract_y
  _atom_site_fract_z
  _atom_site_occupancy
  H   H1        1.0  0.46435997322256717  0.599233198993114  0.20516586834141695  1.0000
  H   H2        1.0  0.5356400269714652  0.09923319944920782  0.7948341318287497  1.0000
  H   H3        1.0  0.23597253668672974  0.6923720682037902  0.7379170477865455  1.0000
  H   H4        1.0  0.7640274635073027  0.1923720680533558  0.26208295238362106  1.0000
  H   H5        1.0  0.4627077203986624  0.7611219268427565  0.9524449849938637  1.0000
  H   H6        1.0  0.53729227979537  0.26112192669232215  0.04755501517630308  1.0000
  H   H7        1.0  0.2902219257270934  0.7651562059582036  0.5172560290880832  1.0000
  H   H8        1.0  0.7097780744669389  0.2651562064142973  0.48274397108208356  1.0000
  H   H9        1.0  0.5772015291579274  0.9050107446278339  0.5193345317087248  1.0000
  H   H10       1.0  0.4227984710565961  0.40501074447739954  0.4806654674507323  1.0000
  H   H11       1.0  0.7419333133896816  0.9008491382649416  0.9378930614067221  1.0000
  H   H12       1.0  0.25806668680435074  0.40084913811450723  0.06210693876344469  1.0000
  H   H13       1.0  0.7866901469509502  0.9603469590562115  0.7214637343471589  1.0000
  H   H14       1.0  0.21330985324308208  0.46034695890577715  0.2785362658230078  1.0000
  H   H15       1.0  0.9608436053179349  0.13856190763530626  0.0021592061573886914  1.0000
  H   H16       1.0  0.03915639487609742  0.6385619071792125  0.9978407940127779  1.0000
  H   H17       1.0  0.29218108215934524  0.0024209117346623015  0.14740351651205233  1.0000
  H   H18       1.0  0.7078189180551783  0.5024209118850966  0.8525964826474048  1.0000
  H   H19       1.0  0.35880511557212796  0.15288005822049197  0.5604259563112098  1.0000
  H   H20       1.0  0.6411948846219044  0.6528800583709263  0.4395740438589569  1.0000
  H   H21       1.0  0.9244874658918021  0.03242345037950982  0.40520984242874575  1.0000
  H   H22       1.0  0.07551253430223034  0.5324234505299441  0.594790157741421  1.0000
  H   H23       1.0  0.019685087437420534  0.7795900705958018  0.1460479747716351  1.0000
  H   H24       1.0  0.9803149127566119  0.2795900710518956  0.8539520253985315  1.0000
  H   H25       1.0  0.943311646163155  0.8144536135570891  0.35177818184668075  1.0000
  H   H26       1.0  0.0566883540308773  0.3144536134066548  0.648221818323486  1.0000
  C   C1        1.0  0.3605057409692377  0.661405696237099  0.22030686101918454  1.0000
  C   C2        1.0  0.6394942592452857  0.16140569608666455  0.7796931381402726  1.0000
  C   C3        1.0  0.3545469576251064  0.7530340421979844  0.7354226065735121  1.0000
  C   C4        1.0  0.645453042568926  0.25303404204755003  0.26457739359665455  1.0000
  C   C5        1.0  0.48040587362344306  0.7909605579191884  0.8550098115501177  1.0000
  C   C6        1.0  0.5195941265705893  0.290960557768754  0.14499018862004898  1.0000
  C   C7        1.0  0.3817338256061914  0.7935365534503263  0.6122876296467902  1.0000
  C   C8        1.0  0.618266174608332  0.2935365532998919  0.387712369512667  1.0000
  C   C9        1.0  0.6332789360334388  0.8679275123268944  0.8497671711551371  1.0000
  C   C10       1.0  0.3667210641605935  0.36792751217645997  0.15023282901502966  1.0000
  C   C11       1.0  0.5385871387691985  0.8700476837360831  0.6111809667912566  1.0000
  C   C12       1.0  0.461412861445325  0.3700476841921769  0.38881903236820053  1.0000
  C   C13       1.0  0.17423158353048349  0.03508445447402628  0.05768639180134438  1.0000
  C   C14       1.0  0.8257684166635488  0.5350844546244606  0.9423136083688223  1.0000
  C   C15       1.0  0.05655038845472877  0.06029621870021646  0.4968828403542515  1.0000
  C   C16       1.0  0.9434496117393035  0.5602962188506508  0.5031171598159152  1.0000
  C   C17       1.0  0.8348063418251234  0.8577582413238325  0.27420451897976406  1.0000
  C   C18       1.0  0.16519365561049446  0.3577582417799263  0.7257954811317655  1.0000
  N   N1        1.0  0.6594087203470479  0.9044653769313159  0.7289267389844866  1.0000
  N   N2        1.0  0.3405912771090611  0.40446537678088157  0.2710732601163336  1.0000
  O   O1        1.0  0.436062883473974  0.6971694683362689  0.33097456626874533  1.0000
  O   O2        1.0  0.5639371167200584  0.19716946818583453  0.6690254339014214  1.0000
  O   O3        1.0  0.17049742761136344  0.6936756543500735  0.1217136629855404  1.0000
  O   O4        1.0  0.8295025726031601  0.19367565419963903  0.8782863361739167  1.0000
  O   O5        1.0  0.060452007903966154  0.10918502403501422  0.08836884876816638  1.0000
  O   O6        1.0  0.9395479922900662  0.6091850241854486  0.9116311514020005  1.0000
  O   O7        1.0  0.15389109614278912  0.005533146713232488  0.943452421113644  1.0000
  O   O8        1.0  0.8461089040512432  0.5055331468636668  0.05654757905652259  1.0000
  O   O9        1.0  0.22965681155358064  0.1282167167732546  0.4710188213413747  1.0000
  O   O10       1.0  0.7703431886404517  0.628216716923689  0.5289811788287918  1.0000
  O   O11       1.0  0.04321402273700076  0.02944747377581254  0.6104631818864646  1.0000
  O   O12       1.0  0.9567859774570315  0.5294474739262469  0.38953681828370207  1.0000
  O   O13       1.0  0.8939689329310396  0.8360279233677511  0.14865142993276886  1.0000
  O   O14       1.0  0.10603106726299275  0.33602792321731667  0.8513485702373977  1.0000
  O   O15       1.0  0.6723613992396732  0.920398001811212  0.3029904538502057  1.0000
  O   O16       1.0  0.3276386009543592  0.42039800166077773  0.6970095463199609  1.0000
