data_image0
_chemical_formula_structural       H52C36N4O32
_chemical_formula_sum              "H52 C36 N4 O32"
_cell_length_a       16.312385546189667
_cell_length_b       3.6180372553379465
_cell_length_c       20.222024091431063
_cell_angle_alpha    90.0
_cell_angle_beta     90.0
_cell_angle_gamma    90.0

_space_group_name_H-M_alt    "P 1"
_space_group_IT_number       1

loop_
  _space_group_symop_operation_xyz
  'x, y, z'

loop_
  _atom_site_type_symbol
  _atom_site_label
  _atom_site_symmetry_multiplicity
  _atom_site_fract_x
  _atom_site_fract_y
  _atom_site_fract_z
  _atom_site_occupancy
  H   H1        1.0  0.14672337060835747  0.2825041888366428  0.7016292180174099  1.0000
  H   H2        1.0  0.8532766290121967  0.717495812451916  0.2016292183000488  1.0000
  H   H3        1.0  0.6467233710316657  0.717495812451916  0.7016292180174099  1.0000
  H   H4        1.0  0.3532766292019196  0.2825041888366428  0.2016292183000488  1.0000
  H   H5        1.0  0.32022701923080593  0.8592437281880951  0.8485230564664861  1.0000
  H   H6        1.0  0.6797729810027793  0.14075627310046365  0.3485230567491249  1.0000
  H   H7        1.0  0.8202270190410831  0.14075627310046365  0.8485230564664861  1.0000
  H   H8        1.0  0.1797729811925022  0.8592437281880951  0.3485230567491249  1.0000
  H   H9        1.0  0.28271162528262  0.6012786509565116  0.7157306278817585  1.0000
  H   H10       1.0  0.7172883749509652  0.39872135033204725  0.21573062766988702  1.0000
  H   H11       1.0  0.782711625092897  0.39872135033204725  0.7157306278817585  1.0000
  H   H12       1.0  0.21728837452765704  0.6012786509565116  0.21573062766988702  1.0000
  H   H13       1.0  0.164865027398043  0.8206054085318365  0.5224972189839912  1.0000
  H   H14       1.0  0.8351349728355423  0.1793945899927927  0.02249721877211971  1.0000
  H   H15       1.0  0.6648650272083201  0.1793945899927927  0.5224972189839912  1.0000
  H   H16       1.0  0.33513497241223406  0.8206054085318365  0.02249721877211971  1.0000
  H   H17       1.0  0.26678170140580865  0.691308517155215  0.585586946017825  1.0000
  H   H18       1.0  0.7332182988277767  0.3086914841333437  0.08558694580595368  1.0000
  H   H19       1.0  0.7667817012160857  0.3086914841333437  0.585586946017825  1.0000
  H   H20       1.0  0.23321829840446845  0.691308517155215  0.08558694580595368  1.0000
  H   H21       1.0  0.9033918281463267  0.776233405517455  0.6768357652090704  1.0000
  H   H22       1.0  0.09660817208725853  0.22376659300717425  0.176835764997199  1.0000
  H   H23       1.0  0.40339182772301857  0.22376659300717425  0.6768357652090704  1.0000
  H   H24       1.0  0.5966081718975356  0.776233405517455  0.176835764997199  1.0000
  H   H25       1.0  0.0399519272122789  0.15352938369566768  0.615210034057456  1.0000
  H   H26       1.0  0.9600480730213063  0.8464706148289615  0.1152100338455846  1.0000
  H   H27       1.0  0.5399519270225559  0.8464706148289615  0.615210034057456  1.0000
  H   H28       1.0  0.4600480725979981  0.15352938369566768  0.1152100338455846  1.0000
  H   H29       1.0  0.3343952302104677  0.1521650279271589  0.40677328158686227  1.0000
  H   H30       1.0  0.6656047700231175  0.8478349733613999  0.9067732813042233  1.0000
  H   H31       1.0  0.8343952300207448  0.8478349733613999  0.40677328158686227  1.0000
  H   H32       1.0  0.16560477021284045  0.1521650279271589  0.9067732813042233  1.0000
  H   H33       1.0  0.3892256385199943  0.21053389897414168  0.511183610169879  1.0000
  H   H34       1.0  0.6107743611005598  0.7894660995504876  0.011183609958007698  1.0000
  H   H35       1.0  0.8892256389433025  0.7894660995504876  0.511183610169879  1.0000
  H   H36       1.0  0.11077436129028273  0.21053389897414168  0.011183609958007698  1.0000
  H   H37       1.0  0.5315527073246128  0.4685787570315236  0.5249405901211532  1.0000
  H   H38       1.0  0.46844729229594134  0.5314212414931057  0.02494059040379219  1.0000
  H   H39       1.0  0.03155270751433571  0.5314212414931057  0.5249405901211532  1.0000
  H   H40       1.0  0.9684472927192495  0.4685787570315236  0.02494059040379219  1.0000
  H   H41       1.0  0.6104051643339099  0.6505525050985547  0.4233784042235368  1.0000
  H   H42       1.0  0.38959483589967536  0.34944749619000415  0.9233784044354082  1.0000
  H   H43       1.0  0.11040516391060168  0.34944749619000415  0.4233784042235368  1.0000
  H   H44       1.0  0.8895948357099525  0.6505525050985547  0.9233784044354082  1.0000
  H   H45       1.0  0.5439551250719825  0.5595025112064298  0.31102806680292605  1.0000
  H   H46       1.0  0.4560448745485716  0.44049748731819943  0.8110280670147975  1.0000
  H   H47       1.0  0.04395512526170543  0.44049748731819943  0.31102806680292605  1.0000
  H   H48       1.0  0.9560448749718797  0.5595025112064298  0.8110280670147975  1.0000
  H   H49       1.0  0.4022177517458557  0.29148182441849807  0.30692129887383474  1.0000
  H   H50       1.0  0.5977822484877297  0.7085181768700607  0.8069212990857062  1.0000
  H   H51       1.0  0.9022177515561327  0.7085181768700607  0.30692129887383474  1.0000
  H   H52       1.0  0.09778224806442139  0.29148182441849807  0.8069212990857062  1.0000
  C   C1        1.0  0.168022047556387  0.3833713093898037  0.6529387246450266  1.0000
  C   C2        1.0  0.8319779526771983  0.6166286918987551  0.15293872443315515  1.0000
  C   C3        1.0  0.668022047366664  0.6166286918987551  0.6529387246450266  1.0000
  C   C4        1.0  0.3319779522538901  0.3833713093898037  0.15293872443315515  1.0000
  C   C5        1.0  0.28022242038459794  0.8046964347049146  0.805560661304068  1.0000
  C   C6        1.0  0.7197775798489874  0.19530356658364423  0.3055606610921965  1.0000
  C   C7        1.0  0.780222420194875  0.19530356658364423  0.805560661304068  1.0000
  C   C8        1.0  0.21977757942567913  0.8046964347049146  0.3055606610921965  1.0000
  C   C9        1.0  0.22556935584810858  0.8985836409515708  0.5030938522277293  1.0000
  C   C10       1.0  0.7744306437724456  0.10141636033698793  0.0030938520158578496  1.0000
  C   C11       1.0  0.7255693562714167  0.10141636033698793  0.5030938522277293  1.0000
  C   C12       1.0  0.2744306439621685  0.8985836409515708  0.0030938520158578496  1.0000
  C   C13       1.0  0.9656506686527803  0.896250099474754  0.6749970269189822  1.0000
  C   C14       1.0  0.03434933158080501  0.10374990181380488  0.17499702670711081  1.0000
  C   C15       1.0  0.4656506688425032  0.10374990181380488  0.6749970269189822  1.0000
  C   C16       1.0  0.5343493313910821  0.896250099474754  0.17499702670711081  1.0000
  C   C17       1.0  0.426977394586344  0.2965996213601082  0.4696684108899148  1.0000
  C   C18       1.0  0.5730226050342101  0.7034003799284505  0.9696684111017861  1.0000
  C   C19       1.0  0.9269773943966211  0.7034003799284505  0.4696684108899148  1.0000
  C   C20       1.0  0.07302260522393308  0.2965996213601082  0.9696684111017861  1.0000
  C   C21       1.0  0.505383694902042  0.4374754233568987  0.4758759002803161  1.0000
  C   C22       1.0  0.49461630533154316  0.56252457793166  0.9758759004921875  1.0000
  C   C23       1.0  0.0053836944787339  0.56252457793166  0.4758759002803161  1.0000
  C   C24       1.0  0.9946163051418203  0.4374754233568987  0.9758759004921875  1.0000
  C   C25       1.0  0.5487301869278614  0.5354294340507153  0.41891512648279644  1.0000
  C   C26       1.0  0.45126981330572385  0.46457056723784346  0.9189151266946678  1.0000
  C   C27       1.0  0.0487301871175843  0.46457056723784346  0.41891512648279644  1.0000
  C   C28       1.0  0.951269813116001  0.5354294340507153  0.9189151266946678  1.0000
  C   C29       1.0  0.5129781690302567  0.4862402694733106  0.3568236417568902  1.0000
  C   C30       1.0  0.48702183059029736  0.5137597290513186  0.8568236414742513  1.0000
  C   C31       1.0  0.012978169219979671  0.5137597290513186  0.3568236417568902  1.0000
  C   C32       1.0  0.9870218310136056  0.4862402694733106  0.8568236414742513  1.0000
  C   C33       1.0  0.43431808057374516  0.34272393081927444  0.3529321628602081  1.0000
  C   C34       1.0  0.565681919046809  0.6572760677053547  0.8529321630720795  1.0000
  C   C35       1.0  0.9343180809970534  0.6572760677053547  0.3529321628602081  1.0000
  C   C36       1.0  0.0656819192365319  0.34272393081927444  0.8529321630720795  1.0000
  N   N1        1.0  0.39398327251413007  0.2552278749030589  0.40897019915550586  1.0000
  N   N2        1.0  0.6060167277194553  0.7447721263854998  0.9089701993673773  1.0000
  N   N3        1.0  0.8939832723244071  0.7447721263854998  0.40897019915550586  1.0000
  N   N4        1.0  0.10601672790917813  0.2552278749030589  0.9089701993673773  1.0000
  O   O1        1.0  0.12309692928199827  0.33781741970643026  0.6030305836282398  1.0000
  O   O2        1.0  0.8769030709515869  0.6621825815821285  0.10303058341636841  1.0000
  O   O3        1.0  0.6230969290922753  0.6621825815821285  0.6030305836282398  1.0000
  O   O4        1.0  0.3769030705282788  0.33781741970643026  0.10303058341636841  1.0000
  O   O5        1.0  0.23872558853966175  0.5398218984944004  0.6507892563324841  1.0000
  O   O6        1.0  0.7612744116939235  0.46017810279415833  0.1507892566151231  1.0000
  O   O7        1.0  0.7387255883499388  0.46017810279415833  0.6507892563324841  1.0000
  O   O8        1.0  0.26127441127061535  0.5398218984944004  0.1507892566151231  1.0000
  O   O9        1.0  0.20704812122276758  0.885410125413642  0.8056630763734316  1.0000
  O   O10       1.0  0.7929518790108177  0.1145898731109873  0.3056630761615603  1.0000
  O   O11       1.0  0.7070481210330447  0.1145898731109873  0.8056630763734316  1.0000
  O   O12       1.0  0.2929518792005406  0.885410125413642  0.3056630761615603  1.0000
  O   O13       1.0  0.32045306280913843  0.6446131964393371  0.7565159388017215  1.0000
  O   O14       1.0  0.6795469374244468  0.3553868048492216  0.25651593908436043  1.0000
  O   O15       1.0  0.8204530626194155  0.3553868048492216  0.7565159388017215  1.0000
  O   O16       1.0  0.1795469376141697  0.6446131964393371  0.25651593908436043  1.0000
  O   O17       1.0  0.23408610525956738  0.05833300076958068  0.4495022644074367  1.0000
  O   O18       1.0  0.7659138943609868  0.941667000518978  0.9495022641247978  1.0000
  O   O19       1.0  0.7340861056828756  0.941667000518978  0.4495022644074367  1.0000
  O   O20       1.0  0.2659138945507097  0.05833300076958068  0.9495022641247978  1.0000
  O   O21       1.0  0.28779711935490654  0.8100665701205558  0.5413678190918063  1.0000
  O   O22       1.0  0.7122028808786787  0.1899334311680029  0.04136781887993488  1.0000
  O   O23       1.0  0.7877971191651836  0.1899334311680029  0.5413678190918063  1.0000
  O   O24       1.0  0.21220288045537053  0.8100665701205558  0.04136781887993488  1.0000
  O   O25       1.0  0.013078143561278939  0.8916376317685746  0.7220373368157095  1.0000
  O   O26       1.0  0.9869218566723063  0.10836236675605468  0.2220373370983483  1.0000
  O   O27       1.0  0.513078143371556  0.10836236675605468  0.7220373368157095  1.0000
  O   O28       1.0  0.48692185624899814  0.8916376317685746  0.2220373370983483  1.0000
  O   O29       1.0  0.9811807534023511  0.04246863400129579  0.61608989998579  1.0000
  O   O30       1.0  0.018819246831234173  0.957531367287263  0.11608989977391862  1.0000
  O   O31       1.0  0.481180753592074  0.957531367287263  0.61608989998579  1.0000
  O   O32       1.0  0.5188192466415112  0.04246863400129579  0.11608989977391862  1.0000
