data_image0
_chemical_formula_structural       H100C90N4O22
_chemical_formula_sum              "H100 C90 N4 O22"
_cell_length_a       11.548897690541946
_cell_length_b       13.562561268147922
_cell_length_c       14.648085597804604
_cell_angle_alpha    67.26348569534805
_cell_angle_beta     89.07283226279658
_cell_angle_gamma    67.36666879827713

_space_group_name_H-M_alt    "P 1"
_space_group_IT_number       1

loop_
  _space_group_symop_operation_xyz
  'x, y, z'

loop_
  _atom_site_type_symbol
  _atom_site_label
  _atom_site_symmetry_multiplicity
  _atom_site_fract_x
  _atom_site_fract_y
  _atom_site_fract_z
  _atom_site_occupancy
  H   H1        1.0  0.7865388622666623  0.12377626159627611  0.45181299386513485  1.0000
  H   H2        1.0  0.21346113789333526  0.8762237390179242  0.5481870060381051  1.0000
  H   H3        1.0  0.6894908502857793  0.05805604302602162  0.34699978333189696  1.0000
  H   H4        1.0  0.3105091490088525  0.9419439575867671  0.6530002165812556  1.0000
  H   H5        1.0  0.666456599890101  0.7943973611038972  0.6222692151147401  1.0000
  H   H6        1.0  0.33354340026989643  0.20560263951030294  0.3777307847884997  1.0000
  H   H7        1.0  0.7678226913164276  0.8684590852273546  0.7163242765167473  1.0000
  H   H8        1.0  0.23217730797820427  0.13154091538543405  0.28367572339640534  1.0000
  H   H9        1.0  0.5073512595099967  0.9275701880804712  0.3990088636786145  1.0000
  H   H10       1.0  0.49264874065000064  0.07242981253372899  0.6009911362246253  1.0000
  H   H11       1.0  0.6291175931038926  0.7854834663071754  0.4569491290907619  1.0000
  H   H12       1.0  0.37088240658201954  0.21451653342888083  0.5430508711311749  1.0000
  H   H13       1.0  0.6466119423778363  0.8913453038049963  0.3438022757786554  1.0000
  H   H14       1.0  0.35338805691679553  0.10865469680779247  0.6561977241344972  1.0000
  H   H15       1.0  0.11505184234870762  0.3721706772791465  0.559916549062514  1.0000
  H   H16       1.0  0.88494815820257  0.6278293224583212  0.4400834511495099  1.0000
  H   H17       1.0  0.12358773445572421  0.45613027308164383  0.37612124778853673  1.0000
  H   H18       1.0  0.8764122648409972  0.5438697275311025  0.6238787514419233  1.0000
  H   H19       1.0  0.8972455480901126  0.28147946493777115  0.33673899578244715  1.0000
  H   H20       1.0  0.10275445206988472  0.718520535676429  0.6632610041207927  1.0000
  H   H21       1.0  0.8947547260805951  0.2065828848134148  0.5245506807198971  1.0000
  H   H22       1.0  0.10524527360531709  0.7934171149226413  0.4754493195020397  1.0000
  H   H23       1.0  0.05233897791058846  0.4910366436682185  0.20687593259843298  1.0000
  H   H24       1.0  0.9476610217753236  0.5089633560678376  0.7931240676235038  1.0000
  H   H25       1.0  0.9146968699946887  0.46706869511927657  0.1878706295471633  1.0000
  H   H26       1.0  0.08530313055658893  0.5329313046181912  0.8121293706648607  1.0000
  H   H27       1.0  0.06652834793484928  0.35478063544421357  0.2069157582083165  1.0000
  H   H28       1.0  0.9334716526185179  0.6452193642932118  0.7930842413210148  1.0000
  H   H29       1.0  0.08460170258515046  0.22233266784908776  0.11300849118841123  1.0000
  H   H30       1.0  0.9153982975769367  0.7776673327650702  0.8869915080321359  1.0000
  H   H31       1.0  0.18973257313585093  0.3061072927058656  0.9799022297681351  1.0000
  H   H32       1.0  0.8102674261587809  0.693892707906923  0.020097770145017513  1.0000
  H   H33       1.0  0.20142483428591343  0.3826992016780466  0.05302529364814016  1.0000
  H   H34       1.0  0.7985751653999986  0.6173007980580094  0.9469747065737968  1.0000
  H   H35       1.0  0.04928948919242702  0.4059373518510706  0.0015075247996619895  1.0000
  H   H36       1.0  0.9507105101022049  0.594062648761718  0.9984924751134906  1.0000
  H   H37       1.0  0.25978006967370837  0.5010994647218949  0.4529827426268361  1.0000
  H   H38       1.0  0.7402199308775693  0.4989005350155727  0.5470172575851879  1.0000
  H   H39       1.0  0.43680036967367253  0.7510706295807701  0.43667773722487657  1.0000
  H   H40       1.0  0.5631996308776052  0.2489293701566976  0.5633222629871474  1.0000
  H   H41       1.0  0.7897496383370396  0.9165015280423805  0.1012660064814363  1.0000
  H   H42       1.0  0.21025036221423796  0.08349847169508716  0.8987339937305877  1.0000
  H   H43       1.0  0.7193989810635479  0.11122410893691151  0.6792120378291518  1.0000
  H   H44       1.0  0.28060101823108385  0.8887758916758772  0.32078796208400073  1.0000
  H   H45       1.0  0.042349513741953955  0.08331671389892349  0.28997706595046785  1.0000
  H   H46       1.0  0.9576504868093236  0.9166832858385442  0.7100229342615562  1.0000
  H   H47       1.0  0.8817044654903515  0.8330437101631015  0.28318373098453187  1.0000
  H   H48       1.0  0.11829553380428014  0.16695629044968727  0.7168162689286207  1.0000
  H   H49       1.0  0.8798686307494888  0.3407540708142747  0.6663947072480256  1.0000
  H   H50       1.0  0.12013136941050846  0.6592459297999255  0.3336052926552142  1.0000
  H   H51       1.0  0.05976430970615084  0.1544629059089151  0.9932116688643262  1.0000
  H   H52       1.0  0.9402356899797613  0.845537093827141  0.006788331357610767  1.0000
  H   H53       1.0  0.5449506040721579  0.38854937121424593  0.7860631748789412  1.0000
  H   H54       1.0  0.4550493956137544  0.6114506285218102  0.2139368253429957  1.0000
  H   H55       1.0  0.32320562470483505  0.6451676258815362  0.43808851225212253  1.0000
  H   H56       1.0  0.676794374981077  0.35483237385451993  0.5619114879698143  1.0000
  H   H57       1.0  0.3878125626514976  0.26737939447028475  0.6702725607632766  1.0000
  H   H58       1.0  0.6121874378997801  0.7326206052671829  0.32972743944874744  1.0000
  H   H59       1.0  0.4101588818504861  0.23321437753814278  0.928224327577297  1.0000
  H   H60       1.0  0.5898411183095112  0.7667856230760574  0.07177567232594283  1.0000
  H   H61       1.0  0.8048868885043996  0.997816125279532  0.8411405308519452  1.0000
  H   H62       1.0  0.19511311118151242  0.002183874456524184  0.15885946936999176  1.0000
  H   H63       1.0  0.6068413011119544  0.9783452249663931  0.13805137349407354  1.0000
  H   H64       1.0  0.3931586994393231  0.021654774771074744  0.8619486267179505  1.0000
  H   H65       1.0  0.6130954127753268  0.2792816633707893  0.037745070303770493  1.0000
  H   H66       1.0  0.3869045877759509  0.7207183363666785  0.9622549299082535  1.0000
  H   H67       1.0  0.9669950656387925  0.9518773313451981  0.2994658620069135  1.0000
  H   H68       1.0  0.033004934047119815  0.04812266839085797  0.7005341382150233  1.0000
  H   H69       1.0  0.8799791596134167  0.3416692735984658  0.11030787918972214  1.0000
  H   H70       1.0  0.12002084093786092  0.6583307261390018  0.8896921210223018  1.0000
  H   H71       1.0  0.6237888122826281  0.5290310742736906  0.9068873641798806  1.0000
  H   H72       1.0  0.37621118740537346  0.4709689254623233  0.09311263535936362  1.0000
  H   H73       1.0  0.9754415316626956  0.2391380448607518  0.8271672516731902  1.0000
  H   H74       1.0  0.024558467631936108  0.760861955752037  0.1728327482399625  1.0000
  H   H75       1.0  0.651200131386673  0.6163486701543378  0.6430687006552503  1.0000
  H   H76       1.0  0.34879986829923904  0.3836513295817183  0.35693129956668646  1.0000
  H   H77       1.0  0.4655978016478646  0.7618642362400472  0.665477206817575  1.0000
  H   H78       1.0  0.5344021976467673  0.23813576437274134  0.3345227930955777  1.0000
  H   H79       1.0  0.589756747367991  0.710581629577899  0.7648512658082952  1.0000
  H   H80       1.0  0.4102432523179212  0.2894183701581569  0.23514873441364167  1.0000
  H   H81       1.0  0.4638061591719647  0.6644883163332046  0.7872307041710452  1.0000
  H   H82       1.0  0.5361938401247568  0.3355116842795417  0.21276929505941486  1.0000
  H   H83       1.0  0.2646811160672211  0.3765143533133532  0.8142958593930233  1.0000
  H   H84       1.0  0.7353188844861462  0.6234856464240721  0.18570414013630807  1.0000
  H   H85       1.0  0.24789915539091203  0.25591118840509713  0.8037161103512932  1.0000
  H   H86       1.0  0.7521008442949999  0.7440888113309589  0.1962838898706437  1.0000
  H   H87       1.0  0.18989828440169312  0.3959362798308721  0.7006127654073504  1.0000
  H   H88       1.0  0.8101017161495845  0.6040637199065956  0.2993872348046736  1.0000
  H   H89       1.0  0.45702958133709637  0.11491638774122984  0.1963512083076778  1.0000
  H   H90       1.0  0.5429704183488157  0.8850836119948263  0.8036487919142592  1.0000
  H   H91       1.0  0.3816256450281622  0.12144211501684579  0.08857878686655749  1.0000
  H   H92       1.0  0.6183743546577499  0.8785578847192103  0.9114212133553794  1.0000
  H   H93       1.0  0.42866300419395453  0.23517391229197  0.07988687983310172  1.0000
  H   H94       1.0  0.5713369951006774  0.7648260883208187  0.9201131200800508  1.0000
  H   H95       1.0  0.6891110029822095  0.5338394383812723  0.056002379638556886  1.0000
  H   H96       1.0  0.3108889963124224  0.46616056223151625  0.9439976202745958  1.0000
  H   H97       1.0  0.6865539473170973  0.4300136547010409  0.17497395869451998  1.0000
  H   H98       1.0  0.3134460532341803  0.5699863450364268  0.8250260415175041  1.0000
  H   H99       1.0  0.5886116934436202  0.4596823628474067  0.06769882150771385  1.0000
  H   H100      1.0  0.41138830710765756  0.540317636890061  0.9323011787043101  1.0000
  C   C1        1.0  0.7582926678958776  0.05127479137865464  0.48386296752547064  1.0000
  C   C2        1.0  0.24170733179003448  0.9487252083574016  0.5161370326964662  1.0000
  C   C3        1.0  0.703663113602834  0.013656389119907235  0.42836513163197854  1.0000
  C   C4        1.0  0.29633688608307823  0.9863436106161488  0.5716348685899583  1.0000
  C   C5        1.0  0.6692575172500228  0.9194916794972917  0.4755301445341863  1.0000
  C   C6        1.0  0.3307424824358893  0.08050832023876439  0.5244698556877505  1.0000
  C   C7        1.0  0.6916357621685251  0.8674441004049047  0.5806305530124966  1.0000
  C   C8        1.0  0.3083642383827526  0.132555899332563  0.41936944719952757  1.0000
  C   C9        1.0  0.7465619054994881  0.9068587628713447  0.6346084350643469  1.0000
  C   C10       1.0  0.25343809418642405  0.09314123686471136  0.3653915651575899  1.0000
  C   C11       1.0  0.6112327685138003  0.8779808645864774  0.415665633798974  1.0000
  C   C12       1.0  0.38876723117420153  0.12201913514953631  0.5843343657402703  1.0000
  C   C13       1.0  0.06818547931031603  0.35650527013753086  0.5064388313502185  1.0000
  C   C14       1.0  0.931814520375596  0.6434947295985253  0.49356116887171836  1.0000
  C   C15       1.0  0.07178993061204021  0.4009899468688843  0.4046305902627957  1.0000
  C   C16       1.0  0.9282100690738719  0.5990100528671719  0.5953694099591411  1.0000
  C   C17       1.0  0.008858803252917  0.37779595669457355  0.3395777730603971  1.0000
  C   C18       1.0  0.9911411969070804  0.6222040439196267  0.6604222268428427  1.0000
  C   C19       1.0  0.9449589310774325  0.30533501260099577  0.3830778761421353  1.0000
  C   C20       1.0  0.05504106947384529  0.6946649871364718  0.6169221240698888  1.0000
  C   C21       1.0  0.9427201292279982  0.2622090947563864  0.48503172945377415  1.0000
  C   C22       1.0  0.05727987093199917  0.7377909058578137  0.5149682704494657  1.0000
  C   C23       1.0  0.011217695380056559  0.426048084962014  0.229542546356859  1.0000
  C   C24       1.0  0.9887823051733108  0.5739519147754114  0.7704574531724724  1.0000
  C   C25       1.0  0.14680906680610029  0.3399190023346487  0.03537235173361534  1.0000
  C   C26       1.0  0.853190933353897  0.6600809982795516  0.9646276481696245  1.0000
  C   C27       1.0  0.5111940317154461  0.5496536337522279  0.6594908661007848  1.0000
  C   C28       1.0  0.4888059675791857  0.4503463668605607  0.3405091338123678  1.0000
  C   C29       1.0  0.49278985406399306  0.44723831972212164  0.7105234892427547  1.0000
  C   C30       1.0  0.5072101464872845  0.552761680015346  0.2894765109692693  1.0000
  C   C31       1.0  0.41464494762090687  0.4137882488340962  0.6682195847764604  1.0000
  C   C32       1.0  0.5853550525390905  0.586211751780104  0.3317804151267796  1.0000
  C   C33       1.0  0.3515100560987349  0.4879976586053123  0.5696343206443227  1.0000
  C   C34       1.0  0.6484899440612625  0.512002342008888  0.4303656792589171  1.0000
  C   C35       1.0  0.36687069368461517  0.5914874342727634  0.5163823499530206  1.0000
  C   C36       1.0  0.633129306001297  0.4085125654632926  0.48361765026891623  1.0000
  C   C37       1.0  0.4464361818938427  0.6217058729183425  0.5608968745613382  1.0000
  C   C38       1.0  0.553563818657435  0.37829412681912533  0.43910312565068577  1.0000
  C   C39       1.0  0.3949703058769071  0.30250421288511886  0.725264526185606  1.0000
  C   C40       1.0  0.6050296934177247  0.6974957877276698  0.2747354737275466  1.0000
  C   C41       1.0  0.5048888728193738  0.20801457600215995  0.8070555174530645  1.0000
  C   C42       1.0  0.49511112686653835  0.7919854237338962  0.1929444827688724  1.0000
  C   C43       1.0  0.4973036520078592  0.18197726964102445  0.9085873610545103  1.0000
  C   C44       1.0  0.5026963476780527  0.8180227300950318  0.09141263916742648  1.0000
  C   C45       1.0  0.5940487373894979  0.09312983281722097  0.986751476153941  1.0000
  C   C46       1.0  0.4059512631617797  0.9068701669202468  0.013248524058083059  1.0000
  C   C47       1.0  0.7041199650051384  0.024948953581212054  0.9604535943853669  1.0000
  C   C48       1.0  0.29588003515485894  0.9750510470329882  0.03954640551787293  1.0000
  C   C49       1.0  0.7179412966464289  0.050243363648793275  0.8603114803751425  1.0000
  C   C50       1.0  0.28205870390484866  0.9497566360886743  0.1396885198368815  1.0000
  C   C51       1.0  0.6197580601943236  0.14158086266185596  0.7843329557586975  1.0000
  C   C52       1.0  0.3802419399656736  0.8584191379523443  0.21566704414454216  1.0000
  C   C53       1.0  0.5861473100825794  0.07185111811287556  0.09576181924397578  1.0000
  C   C54       1.0  0.4138526892120525  0.928148882499913  0.9042381806691768  1.0000
  C   C55       1.0  0.6880748955006786  0.09630449608381693  0.13604963708923248  1.0000
  C   C56       1.0  0.3119251046593187  0.9036955045303834  0.8639503628140075  1.0000
  C   C57       1.0  0.6876439462690127  0.2082725947182299  0.0992447503748709  1.0000
  C   C58       1.0  0.3123560538909848  0.7917274058959702  0.9007552495283692  1.0000
  C   C59       1.0  0.7822010404777879  0.23221714133413968  0.1325936497474418  1.0000
  C   C60       1.0  0.2177989596822094  0.7677828592800604  0.8674063501557981  1.0000
  C   C61       1.0  0.8799381590728447  0.1388263740527868  0.20932275126063776  1.0000
  C   C62       1.0  0.12006184108715269  0.8611736265614134  0.790677248642602  1.0000
  C   C63       1.0  0.8866440772577424  0.0248899567097563  0.24476001341090808  1.0000
  C   C64       1.0  0.11335592329353529  0.9751100430277114  0.7552399868011158  1.0000
  C   C65       1.0  0.7930025734496486  0.0042527265811568675  0.2059918427023544  1.0000
  C   C66       1.0  0.20699742623835327  0.9957472731548569  0.7940081568368897  1.0000
  C   C67       1.0  0.7893037365284409  0.3504968911410742  0.07796926510196701  1.0000
  C   C68       1.0  0.21069626315747103  0.649503108594982  0.9220307351199699  1.0000
  C   C69       1.0  0.7948300130532017  0.372272748363144  0.968261776920165  1.0000
  C   C70       1.0  0.20516998663271055  0.6277272513729121  0.03173822330177186  1.0000
  C   C71       1.0  0.7011118982991632  0.4648548497352185  0.8895062857285211  1.0000
  C   C72       1.0  0.29888810099755836  0.5351451508775279  0.11049371350193897  1.0000
  C   C73       1.0  0.7007828314371856  0.48027320209014707  0.7892134554256771  1.0000
  C   C74       1.0  0.299217169114092  0.5197267976473205  0.21078654478634695  1.0000
  C   C75       1.0  0.8003720678043296  0.39528380107144107  0.7688771174679563  1.0000
  C   C76       1.0  0.19962793188158248  0.604716198664615  0.23112288275398063  1.0000
  C   C77       1.0  0.897850386346587  0.30286128065729107  0.8449077460000635  1.0000
  C   C78       1.0  0.10214961381341045  0.6971387199569091  0.1550922539031764  1.0000
  C   C79       1.0  0.895684017924464  0.29180808235616224  0.9436365005039083  1.0000
  C   C80       1.0  0.1043159817635378  0.7081919173798517  0.05636349903533586  1.0000
  C   C81       1.0  0.6005282021416707  0.5832874129565087  0.7043923384094328  1.0000
  C   C82       1.0  0.39947179754424145  0.4167125867795475  0.2956076618125041  1.0000
  C   C83       1.0  0.5258716533899275  0.685718896311331  0.7325095961666466  1.0000
  C   C84       1.0  0.4741283471613502  0.3142811034261367  0.2674904040453776  1.0000
  C   C85       1.0  0.2668965763420658  0.3337813597877601  0.7637261381553209  1.0000
  C   C86       1.0  0.7331034242092118  0.6662186399497075  0.23627386205670306  1.0000
  C   C87       1.0  0.4555085141565636  0.14014807011224123  0.11539206436563795  1.0000
  C   C88       1.0  0.5444914863947139  0.8598519296252264  0.8846079358463862  1.0000
  C   C89       1.0  0.6827205114031104  0.4490674712677438  0.09478230872998686  1.0000
  C   C90       1.0  0.3172794882828017  0.5509325284683123  0.9052176914919501  1.0000
  N   N1        1.0  0.7801751021508637  0.9973646071720335  0.5853959242734642  1.0000
  N   N2        1.0  0.21982489753504852  0.002635392564022622  0.4146040759484726  1.0000
  N   N3        1.0  0.0024733691379456137  0.2895948878833636  0.5447468519408656  1.0000
  N   N4        1.0  0.9975266301566862  0.7104051127294249  0.45525314797228705  1.0000
  O   O1        1.0  0.8356307871538651  0.034545652149912565  0.6371002603857618  1.0000
  O   O2        1.0  0.1643692125320471  0.9654543475861435  0.36289973983617496  1.0000
  O   O3        1.0  0.993786728602881  0.2508224541914504  0.6426651175804459  1.0000
  O   O4        1.0  0.00621327069175084  0.7491775464213382  0.35733488233270694  1.0000
  O   O5        1.0  0.14869078247165418  0.24796141064802377  0.12682146230625205  1.0000
  O   O6        1.0  0.8513092172163476  0.7520385890879902  0.8731785372329921  1.0000
  O   O7        1.0  0.27516275817947883  0.45585774892886827  0.5265683758374893  1.0000
  O   O8        1.0  0.7248372423717988  0.5441422508085995  0.47343162437453473  1.0000
  O   O9        1.0  0.46578506260840313  0.7209790648565313  0.5094212798591736  1.0000
  O   O10       1.0  0.5342149370795988  0.2790209348794823  0.49057871968007066  1.0000
  O   O11       1.0  0.8025972768067571  0.929820845703441  0.03119139843294211  1.0000
  O   O12       1.0  0.1974027228791549  0.070179154032615  0.9688086017889947  1.0000
  O   O13       1.0  0.63440590977313  0.16622098938428895  0.6857988260822968  1.0000
  O   O14       1.0  0.3655940899127819  0.8337790103517672  0.31420117413964005  1.0000
  O   O15       1.0  0.9716599028939655  0.16032196045204683  0.24557634770655695  1.0000
  O   O16       1.0  0.028340096400666197  0.8396780401607419  0.7544236522065957  1.0000
  O   O17       1.0  0.8025099253518151  0.8918955593291998  0.23179404733337328  1.0000
  O   O18       1.0  0.19749007519946263  0.10810444040826767  0.7682059528786508  1.0000
  O   O19       1.0  0.8022081544124053  0.4058725653180207  0.6718978095044543  1.0000
  O   O20       1.0  0.1977918461388723  0.594127434419447  0.3281021907075697  1.0000
  O   O21       1.0  0.9901538506098347  0.20258416142103375  0.019088941743028744  1.0000
  O   O22       1.0  0.009846149076077499  0.7974158383150223  0.9809110584789081  1.0000
