data_image0
_chemical_formula_structural       H64C68N8O8S2
_chemical_formula_sum              "H64 C68 N8 O8 S2"
_cell_length_a       9.879333589872168
_cell_length_b       12.86820607430259
_cell_length_c       13.515155661586306
_cell_angle_alpha    117.85207196766393
_cell_angle_beta     99.23770203671165
_cell_angle_gamma    96.57141045590754

_space_group_name_H-M_alt    "P 1"
_space_group_IT_number       1

loop_
  _space_group_symop_operation_xyz
  'x, y, z'

loop_
  _atom_site_type_symbol
  _atom_site_label
  _atom_site_symmetry_multiplicity
  _atom_site_fract_x
  _atom_site_fract_y
  _atom_site_fract_z
  _atom_site_occupancy
  H   H1        1.0  0.5049986072144066  0.38627830791620255  0.8992209507596217  1.0000
  H   H2        1.0  0.49500139327362447  0.6137216921932229  0.10077904976296065  1.0000
  H   H3        1.0  0.5059651026495591  0.77297891129023  0.877933699616451  1.0000
  H   H4        1.0  0.49403489784324467  0.227021088815595  0.12206630016519708  1.0000
  H   H5        1.0  0.5739408040780556  0.23547078513023018  0.874060252384916  1.0000
  H   H6        1.0  0.42605919538870063  0.7645292149734155  0.12593974727126686  1.0000
  H   H7        1.0  0.7020506095052781  0.10472991896091394  0.9181019689030753  1.0000
  H   H8        1.0  0.2979493899614782  0.895270081142732  0.0818980307531077  1.0000
  H   H9        1.0  0.964384414845324  0.137904755498411  0.9475526830116806  1.0000
  H   H10       1.0  0.0356155856474796  0.8620952446074142  0.05244731676996735  1.0000
  H   H11       1.0  0.09320630860698721  0.30410863352072914  0.9309422421558133  1.0000
  H   H12       1.0  0.9067936908549965  0.6958913665865171  0.06905775824130383  1.0000
  H   H13       1.0  0.9602555299884568  0.4335176220640783  0.8795914206351206  1.0000
  H   H14       1.0  0.03974446947829963  0.5664823780395677  0.1204085790210623  1.0000
  H   H15       1.0  0.5170463765812019  0.46053734993858375  0.6825357729371384  1.0000
  H   H16       1.0  0.4829536228807817  0.5394626501686625  0.3174642274599787  1.0000
  H   H17       1.0  0.24147433522542716  0.37962810277873693  0.807300742734713  1.0000
  H   H18       1.0  0.7585256642413292  0.620371897324909  0.19269925692146997  1.0000
  H   H19       1.0  0.044289349439709545  0.20169743218558112  0.6930609532585604  1.0000
  H   H20       1.0  0.9557106510530942  0.798302567920244  0.30693904652308773  1.0000
  H   H21       1.0  0.0009659745996282028  0.085321856586884  0.4788177234889587  1.0000
  H   H22       1.0  0.999034024867128  0.9146781435167618  0.5211822761672241  1.0000
  H   H23       1.0  0.16081908790914787  0.14632874492683776  0.3808199848745679  1.0000
  H   H24       1.0  0.8391809123532926  0.8536712542822005  0.6191800152239948  1.0000
  H   H25       1.0  0.3571306389763436  0.3245300534826306  0.49451990605108037  1.0000
  H   H26       1.0  0.6428693604904127  0.6754699466210153  0.5054800936051025  1.0000
  H   H27       1.0  0.17645758106516565  0.5873990332006884  0.8619483653054963  1.0000
  H   H28       1.0  0.8235424181760002  0.4126009660025704  0.13805163392666672  1.0000
  H   H29       1.0  0.9317862038595315  0.6058035015014254  0.8027724173825872  1.0000
  H   H30       1.0  0.06821379560245228  0.39419649860582096  0.19722758301452997  1.0000
  H   H31       1.0  0.8649165435960443  0.6434418221249055  0.6392731026084613  1.0000
  H   H32       1.0  0.13508345689675946  0.3565581779809196  0.36072689717318684  1.0000
  H   H33       1.0  0.03653520799838975  0.6546571929481559  0.5264076545560818  1.0000
  H   H34       1.0  0.9634647914635939  0.3453428071590903  0.4735923458410353  1.0000
  H   H35       1.0  0.20975472861122688  0.5882005463326779  0.41609408097125583  1.0000
  H   H36       1.0  0.7902452718815768  0.4117994537731473  0.5839059188103922  1.0000
  H   H37       1.0  0.39287902884625764  0.6008778341469043  0.4409662789766981  1.0000
  H   H38       1.0  0.6071209716417734  0.3991221659625212  0.5590337215458844  1.0000
  H   H39       1.0  0.18505348446656225  0.7324403814453243  0.3540890074253623  1.0000
  H   H40       1.0  0.8149465160214687  0.2675596186641011  0.64591099309722  1.0000
  H   H41       1.0  0.21868049534071715  0.9463806078238765  0.4005350618592278  1.0000
  H   H42       1.0  0.7813195041260392  0.053619392279769446  0.5994649377969552  1.0000
  H   H43       1.0  0.3816105009210731  0.10695488094819056  0.5847185145693484  1.0000
  H   H44       1.0  0.6183894985456833  0.8930451191554554  0.4152814850868345  1.0000
  H   H45       1.0  0.5119830969224826  0.051626720444203696  0.7206816226106547  1.0000
  H   H46       1.0  0.4880169035655484  0.9483732796652217  0.2793183779119276  1.0000
  H   H47       1.0  0.4788739351569081  0.8395263279241696  0.6746110638634594  1.0000
  H   H48       1.0  0.5211260643050755  0.16047367218307662  0.32538893653365786  1.0000
  H   H49       1.0  0.25442962242131134  0.17400640792626798  0.23689827435407404  1.0000
  H   H50       1.0  0.7455703778411291  0.8259935912827702  0.7631017257444885  1.0000
  H   H51       1.0  0.0873081345709609  0.12438997382730894  0.13295203604497455  1.0000
  H   H52       1.0  0.9126918659218428  0.8756100262785163  0.8670479637366735  1.0000
  H   H53       1.0  0.21468798979550732  0.24987600403971677  0.15928002586300966  1.0000
  H   H54       1.0  0.7853120106972964  0.7501239960661084  0.8407199739186384  1.0000
  H   H55       1.0  0.21599177606841174  0.8593391530197199  0.8386812080010762  1.0000
  H   H56       1.0  0.7840082244243919  0.1406608470861052  0.16131879178057185  1.0000
  H   H57       1.0  0.3407318676345269  0.9928903539863777  0.8778130297689793  1.0000
  H   H58       1.0  0.6592681328535039  0.007109646123047643  0.12218697075360306  1.0000
  H   H59       1.0  0.030717198367450904  0.9289752088423845  0.746080978940696  1.0000
  H   H60       1.0  0.9692828021205802  0.07102479126704081  0.2539190215818863  1.0000
  H   H61       1.0  0.17423951991994174  0.9094076524491456  0.6794058921882139  1.0000
  H   H62       1.0  0.8257604795468145  0.09059234765450037  0.320594107467969  1.0000
  H   H63       1.0  0.1599649203564428  0.056961554027297745  0.7787773442881578  1.0000
  H   H64       1.0  0.8400350799107703  0.9430384451781402  0.22122265506947061  1.0000
  C   C1        1.0  0.6886711953389362  0.4271075490983181  0.8473144672464975  1.0000
  C   C2        1.0  0.31132880412782016  0.5728924510053278  0.1526855324096854  1.0000
  C   C3        1.0  0.7597353149687259  0.344139874493075  0.8744761325803743  1.0000
  C   C4        1.0  0.24026468552407765  0.6558601256127502  0.12552386720127387  1.0000
  C   C5        1.0  0.6875810718759111  0.2509866929467804  0.8851165425583415  1.0000
  C   C6        1.0  0.3124189275908453  0.7490133071568655  0.1148834570978413  1.0000
  C   C7        1.0  0.7606960771070892  0.17651873612185473  0.9104704605998492  1.0000
  C   C8        1.0  0.23930392235489437  0.8234812639853915  0.08952953979726788  1.0000
  C   C9        1.0  0.906486249527865  0.19502316320070953  0.9265193542285662  1.0000
  C   C10       1.0  0.09351375096493852  0.8049768369051157  0.07348064555308191  1.0000
  C   C11       1.0  0.9790498995040529  0.2879912037431292  0.9161855842459902  1.0000
  C   C12       1.0  0.020950100988750667  0.7120087963626959  0.08381441553565788  1.0000
  C   C13       1.0  0.9059055200401961  0.3613045722170564  0.889025948063466  1.0000
  C   C14       1.0  0.09409447942178767  0.6386954278901898  0.11097405233365117  1.0000
  C   C15       1.0  0.5371590365084  0.6334882858644525  0.9104459829283742  1.0000
  C   C16       1.0  0.4628409629535836  0.36651171424279366  0.08955401746874293  1.0000
  C   C17       1.0  0.4284690035636385  0.4743541766518578  0.7242028528582907  1.0000
  C   C18       1.0  0.5715309969291652  0.5256458234539674  0.27579714692335755  1.0000
  C   C19       1.0  0.3111381893514792  0.36459807892269736  0.6586992827828524  1.0000
  C   C20       1.0  0.688861810115277  0.6354019211809485  0.34130071687333047  1.0000
  C   C21       1.0  0.22260505500535877  0.32910090669161157  0.7136449469869878  1.0000
  C   C22       1.0  0.7773949454874448  0.6708990934142136  0.2863550527946604  1.0000
  C   C23       1.0  0.11214518462493327  0.22838877066036184  0.649036365093484  1.0000
  C   C24       1.0  0.8878548148370504  0.7716112294468844  0.3509636353036333  1.0000
  C   C25       1.0  0.08852979698427706  0.16288655102614183  0.5290783109283601  1.0000
  C   C26       1.0  0.911470203503754  0.8371134490832836  0.47092168959422226  1.0000
  C   C27       1.0  0.17745232126674917  0.19772708827998758  0.4742749878576902  1.0000
  C   C28       1.0  0.8225476792260545  0.8022729118258376  0.5257250119239579  1.0000
  C   C29       1.0  0.288662622752864  0.2978965860628657  0.5384568932810647  1.0000
  C   C30       1.0  0.711337377735167  0.7021034140465597  0.4615431072415176  1.0000
  C   C31       1.0  0.39200553262561405  0.594255233690319  0.7361848680569661  1.0000
  C   C32       1.0  0.6079944668363695  0.40574476641692725  0.2638151323401511  1.0000
  C   C33       1.0  0.2402137055900717  0.6039716464741274  0.7237532501772327  1.0000
  C   C34       1.0  0.7597862948979592  0.39602835363529804  0.2762467503453496  1.0000
  C   C35       1.0  0.14535419108670725  0.5998785122681394  0.787835286436122  1.0000
  C   C36       1.0  0.8546458094060964  0.40012148783768575  0.21216471334552606  1.0000
  C   C37       1.0  0.008921581488531291  0.6132022390056403  0.755962698087632  1.0000
  C   C38       1.0  0.991078417978225  0.3867977610980056  0.24403730156855083  1.0000
  C   C39       1.0  0.9711527587901927  0.6329208843373625  0.6629272725511451  1.0000
  C   C40       1.0  0.028847240450973213  0.36707911486589617  0.3370727266810179  1.0000
  C   C41       1.0  0.06665035019486161  0.6388379949600741  0.5984756039168405  1.0000
  C   C42       1.0  0.9333496502931694  0.3611620051493512  0.4015243966057418  1.0000
  C   C43       1.0  0.20014540038210074  0.6227678907485619  0.6299284292277071  1.0000
  C   C44       1.0  0.7998546001107029  0.37723210935726326  0.3700715705539411  1.0000
  C   C45       1.0  0.43215167951142586  0.6130275882818602  0.6382123419259633  1.0000
  C   C46       1.0  0.5678483199505578  0.38697241182538605  0.3617876584711539  1.0000
  C   C47       1.0  0.30952298212396734  0.6409832946276651  0.479831985500823  1.0000
  C   C48       1.0  0.6904770183640636  0.3590167054817603  0.5201680150217594  1.0000
  C   C49       1.0  0.3294637786715145  0.7716460270605836  0.510755180901218  1.0000
  C   C50       1.0  0.6705362207952418  0.22835397304306224  0.4892448187549649  1.0000
  C   C51       1.0  0.2567898879546071  0.8029287197003054  0.43441527533387514  1.0000
  C   C52       1.0  0.7432101123078334  0.1970712795087327  0.5655847247646876  1.0000
  C   C53       1.0  0.275519015549676  0.9231112473093142  0.4608785702531296  1.0000
  C   C54       1.0  0.7244809836867172  0.0768887518975449  0.5391214297199678  1.0000
  C   C55       1.0  0.36658993307233095  0.01322507239636605  0.564232770347665  1.0000
  C   C56       1.0  0.6334100674157  0.9867749277130593  0.4357672301749173  1.0000
  C   C57       1.0  0.4397131448537924  0.9822309552341536  0.6403710562537621  1.0000
  C   C58       1.0  0.5602868546129639  0.017769044869492254  0.3596289434024207  1.0000
  C   C59       1.0  0.4216298457670696  0.862230670298565  0.6139157902089726  1.0000
  C   C60       1.0  0.5783701536996868  0.13776932980508086  0.3860842094472103  1.0000
  C   C61       1.0  0.20008824608675005  0.16087464795399053  0.15338388698189157  1.0000
  C   C62       1.0  0.7999117544060537  0.8391253521518346  0.8466161127997566  1.0000
  C   C63       1.0  0.26675077755258286  0.08306320149341924  0.061093842021080265  1.0000
  C   C64       1.0  0.7332492229402208  0.9169367986124058  0.938906157760568  1.0000
  C   C65       1.0  0.22863420290415662  0.952935728041188  0.8565068227653322  1.0000
  C   C66       1.0  0.7713657965625996  0.047064272062457786  0.14349317689085075  1.0000
  C   C67       1.0  0.14288561095723254  0.9629616491134493  0.7594857079769174  1.0000
  C   C68       1.0  0.8571143895355711  0.03703835099237595  0.24051429180473077  1.0000
  N   N1        1.0  0.5572543941823166  0.4342652615070698  0.8679543752637383  1.0000
  N   N2        1.0  0.4427456063104871  0.5657347385987554  0.13204562451790983  1.0000
  N   N3        1.0  0.4854644581307408  0.5097365371181696  0.8461700001117962  1.0000
  N   N4        1.0  0.5145355423620629  0.49026346298765555  0.15382999966985195  1.0000
  N   N5        1.0  0.48269124650471457  0.6819268797416361  0.8487037095148986  1.0000
  N   N6        1.0  0.5173087539880891  0.31807312036418905  0.15129629026674943  1.0000
  N   N7        1.0  0.3136401897261419  0.6235220127214526  0.5787234495552506  1.0000
  N   N8        1.0  0.6863598097358418  0.37647798738579363  0.42127655084186666  1.0000
  O   O1        1.0  0.7440446219257385  0.4878762718184185  0.8095529172064415  1.0000
  O   O2        1.0  0.25595537753624525  0.5121237282888277  0.19044708319067566  1.0000
  O   O3        1.0  0.549522973080893  0.6170744882061091  0.6187008576386354  1.0000
  O   O4        1.0  0.4504770263810906  0.38292551190113705  0.3812991427584818  1.0000
  O   O5        1.0  0.3924828854833083  0.07990310616858409  0.0760977286255622  1.0000
  O   O6        1.0  0.6075171150094953  0.9200968939372411  0.9239022711560858  1.0000
  O   O7        1.0  0.17397863361517202  0.018476638501098906  0.9582751672486962  1.0000
  O   O8        1.0  0.8260213668776317  0.9815233616047263  0.041724832532951846  1.0000
  S   S1        1.0  0.6430682667611215  0.7092065287867303  0.04275859944796967  1.0000
  S   S2        1.0  0.3569317337316822  0.29079347131909483  0.9572414003336782  1.0000
