data_image0
_chemical_formula_structural       H112C104O24P8
_chemical_formula_sum              "H112 C104 O24 P8"
_cell_length_a       12.897554694221247
_cell_length_b       12.263688500795405
_cell_length_c       15.299726925471555
_cell_angle_alpha    90.0
_cell_angle_beta     95.74146386350274
_cell_angle_gamma    90.0

_space_group_name_H-M_alt    "P 1"
_space_group_IT_number       1

loop_
  _space_group_symop_operation_xyz
  'x, y, z'

loop_
  _atom_site_type_symbol
  _atom_site_label
  _atom_site_symmetry_multiplicity
  _atom_site_fract_x
  _atom_site_fract_y
  _atom_site_fract_z
  _atom_site_occupancy
  H   H1        1.0  0.7202943686240241  0.1309622516827488  0.5216353218074362  1.0000
  H   H2        1.0  0.27970563079148364  0.1309622516827488  0.9783646783610942  1.0000
  H   H3        1.0  0.22029436914947118  0.6309622516503196  0.5216353216569853  1.0000
  H   H4        1.0  0.7797056310413368  0.6309622516503196  0.9783646785112057  1.0000
  H   H5        1.0  0.27970563143743554  0.8690377482523928  0.4783646786238459  1.0000
  H   H6        1.0  0.7202943691916195  0.8690377482523928  0.021635321413286286  1.0000
  H   H7        1.0  0.779705630833632  0.36903774828482194  0.47836467811739514  1.0000
  H   H8        1.0  0.2202943690201227  0.36903774828482194  0.021635321920076406  1.0000
  H   H9        1.0  0.6437635329446958  0.2188877864784233  0.4493376581300479  1.0000
  H   H10       1.0  0.35623646768435935  0.2188877864784233  0.050662341907084275  1.0000
  H   H11       1.0  0.14376353269484238  0.718887786445994  0.4493376579799363  1.0000
  H   H12       1.0  0.8562364671589122  0.718887786445994  0.05066234205753517  1.0000
  H   H13       1.0  0.35623646711676393  0.7811122134567181  0.5506623423012343  1.0000
  H   H14       1.0  0.6437635322987437  0.7811122134567181  0.9493376578672962  1.0000
  H   H15       1.0  0.8562364672882607  0.28111221348914744  0.5506623417944442  1.0000
  H   H16       1.0  0.14376353282419088  0.28111221348914744  0.9493376577168452  1.0000
  H   H17       1.0  0.6657433296941697  0.407071285256162  0.7517248099188351  1.0000
  H   H18       1.0  0.33425667041828194  0.407071285256162  0.7482751895924544  1.0000
  H   H19       1.0  0.16574332952267284  0.9070712852237328  0.751724810425625  1.0000
  H   H20       1.0  0.8342566706681352  0.9070712852237328  0.7482751897425661  1.0000
  H   H21       1.0  0.33425667028893347  0.5929287146789795  0.24827518985554553  1.0000
  H   H22       1.0  0.6657433295648212  0.5929287146789795  0.25172481018192594  1.0000
  H   H23       1.0  0.8342566705387868  0.09292871471140873  0.24827519000565715  1.0000
  H   H24       1.0  0.1657433293149679  0.09292871471140873  0.25172481003181435  1.0000
  H   H25       1.0  0.7928815729617705  0.40000838244397935  0.8834866280769103  1.0000
  H   H26       1.0  0.207118427150681  0.40000838244397935  0.6165133714343791  1.0000
  H   H27       1.0  0.2928815735655742  0.90000838241155  0.883486628583361  1.0000
  H   H28       1.0  0.7071184266252339  0.90000838241155  0.6165133715848302  1.0000
  H   H29       1.0  0.20711842702133249  0.5999916174911621  0.11651337169747024  1.0000
  H   H30       1.0  0.7928815728324221  0.5999916174911621  0.38348662834000125  1.0000
  H   H31       1.0  0.7071184264958854  0.0999916175235914  0.11651337184792113  1.0000
  H   H32       1.0  0.29288157335786924  0.0999916175235914  0.3834866281895503  1.0000
  H   H33       1.0  0.9268215225699403  0.2524990886550291  0.89955036071391  1.0000
  H   H34       1.0  0.07317847762086781  0.2524990886550291  0.6004496394542811  1.0000
  H   H35       1.0  0.426821522320087  0.7524990894380154  0.8995503605637984  1.0000
  H   H36       1.0  0.5731784770170641  0.7524990894380154  0.6004496389478303  1.0000
  H   H37       1.0  0.07317847741316284  0.7475009112801123  0.1004496390604704  1.0000
  H   H38       1.0  0.9268215224405918  0.7475009112801123  0.39955036097700103  1.0000
  H   H39       1.0  0.5731784776630162  0.24750091131254165  0.10044963921058203  1.0000
  H   H40       1.0  0.4268215229660389  0.24750091131254165  0.39955036082655015  1.0000
  H   H41       1.0  0.9267723686588905  0.10711814882731226  0.7866236705687327  1.0000
  H   H42       1.0  0.0732276315319176  0.10711814882731226  0.7133763295994584  1.0000
  H   H43       1.0  0.42677236840903726  0.607118148794883  0.786623670418621  1.0000
  H   H44       1.0  0.5732276317034145  0.607118148794883  0.7133763290926685  1.0000
  H   H45       1.0  0.07322763132421264  0.8928818511078292  0.21337632920564778  1.0000
  H   H46       1.0  0.9267723685295419  0.8928818511078292  0.2866236708318237  1.0000
  H   H47       1.0  0.573227631574066  0.3928818511402585  0.2133763293557594  1.0000
  H   H48       1.0  0.42677236827968873  0.3928818511402585  0.28662367068171213  1.0000
  H   H49       1.0  0.8002395473784575  0.11177151881435153  0.6553737150961689  1.0000
  H   H50       1.0  0.19976045281235066  0.11177151881435153  0.8446262850720222  1.0000
  H   H51       1.0  0.30023954712860407  0.6117715187819223  0.6553737149460572  1.0000
  H   H52       1.0  0.699760453062204  0.6117715187819223  0.8446262852221339  1.0000
  H   H53       1.0  0.19976045268300216  0.8882284811207899  0.34462628533511325  1.0000
  H   H54       1.0  0.8002395471707525  0.8882284811207899  0.1553737147023582  1.0000
  H   H55       1.0  0.6997604529328555  0.38822848115321923  0.3446262854852249  1.0000
  H   H56       1.0  0.30023954692089916  0.38822848115321923  0.15537371455224658  1.0000
  H   H57       1.0  0.6190726497118211  0.0472171785806891  0.6656709821542811  1.0000
  H   H58       1.0  0.3809273504789871  0.0472171785806891  0.8343290180139101  1.0000
  H   H59       1.0  0.1190726502372681  0.5472171785482598  0.6656709820038301  1.0000
  H   H60       1.0  0.88092734995354  0.5472171785482598  0.834329018164361  1.0000
  H   H61       1.0  0.38092735034963865  0.9527828213544524  0.3343290182770012  1.0000
  H   H62       1.0  0.619072649504116  0.9527828213544524  0.1656709817604703  1.0000
  H   H63       1.0  0.880927349745835  0.45278282138688164  0.3343290177705503  1.0000
  H   H64       1.0  0.1190726501079196  0.45278282138688164  0.16567098226692115  1.0000
  H   H65       1.0  0.47105930589238487  0.919961990984055  0.6666695801425758  1.0000
  H   H66       1.0  0.5289406942984232  0.919961990984055  0.8333304200256153  1.0000
  H   H67       1.0  0.9710593053669379  0.4199619910164842  0.6666695802930268  1.0000
  H   H68       1.0  0.02894069404856991  0.4199619910164842  0.8333304198755036  1.0000
  H   H69       1.0  0.5289406940907183  0.08003800895108656  0.33333041963180454  1.0000
  H   H70       1.0  0.4710593057630364  0.08003800895108656  0.16666958040566693  1.0000
  H   H71       1.0  0.028940694694521842  0.5800380089186573  0.3333304201382554  1.0000
  H   H72       1.0  0.9710593059345333  0.5800380089186573  0.16666957989887685  1.0000
  H   H73       1.0  0.29180489509407154  0.9803147967448989  0.609781464034851  1.0000
  H   H74       1.0  0.7081951050967366  0.9803147967448989  0.8902185361333401  1.0000
  H   H75       1.0  0.7918048945686245  0.4803147967773281  0.609781464185302  1.0000
  H   H76       1.0  0.20819510562218366  0.4803147967773281  0.8902185359828891  1.0000
  H   H77       1.0  0.7081951048890315  0.019685203190242667  0.39021853573952947  1.0000
  H   H78       1.0  0.29180489496472306  0.019685203190242667  0.10978146429794203  1.0000
  H   H79       1.0  0.2081951054144787  0.5196852031578134  0.3902185355890786  1.0000
  H   H80       1.0  0.7918048944392759  0.5196852031578134  0.10978146444839293  1.0000
  H   H81       1.0  0.2634993291280446  0.1660578063335445  0.5494917571518976  1.0000
  H   H82       1.0  0.7365006709844071  0.1660578063335445  0.9505082423593918  1.0000
  H   H83       1.0  0.7634993293778978  0.6660578063011153  0.5494917573020093  1.0000
  H   H84       1.0  0.23650067081291018  0.6660578063011153  0.9505082428661819  1.0000
  H   H85       1.0  0.7365006708550584  0.833942193601597  0.45050824262248285  1.0000
  H   H86       1.0  0.2634993289986961  0.833942193601597  0.0494917574149886  1.0000
  H   H87       1.0  0.23650067060520524  0.3339421936340262  0.45050824247237126  1.0000
  H   H88       1.0  0.7634993292485495  0.3339421936340262  0.04949175756510023  1.0000
  H   H89       1.0  0.4110264359168222  0.29620806332160143  0.5494394997536676  1.0000
  H   H90       1.0  0.5889735641956295  0.29620806332160143  0.9505604997576218  1.0000
  H   H91       1.0  0.9110264353913751  0.796208063289172  0.5494394999041184  1.0000
  H   H92       1.0  0.08897356402413263  0.796208063289172  0.950560500264412  1.0000
  H   H93       1.0  0.588973564066281  0.7037919366135401  0.45056050002071296  1.0000
  H   H94       1.0  0.41102643578747367  0.7037919366135401  0.04943950001675859  1.0000
  H   H95       1.0  0.0889735645917281  0.20379193664596937  0.450560499870262  1.0000
  H   H96       1.0  0.9110264360373269  0.20379193664596937  0.0494395001668702  1.0000
  H   H97       1.0  0.4962120412577375  0.4562536662307669  0.6081997074947998  1.0000
  H   H98       1.0  0.5037879588547142  0.4562536662307669  0.8918002920164897  1.0000
  H   H99       1.0  0.9962120415075908  0.9562536661983376  0.6081997076449113  1.0000
  H   H100      1.0  0.0037879586832173227  0.9562536661983376  0.8918002925232797  1.0000
  H   H101      1.0  0.5037879587253656  0.5437463337043746  0.39180029227958063  1.0000
  H   H102      1.0  0.496212041128389  0.5437463337043746  0.10819970775789083  1.0000
  H   H103      1.0  0.0037879584755123844  0.043746333736803894  0.39180029212946904  1.0000
  H   H104      1.0  0.9962120413782423  0.043746333736803894  0.10819970790800246  1.0000
  H   H105      1.0  0.3777272503065412  0.5326767945529851  0.5028355975755902  1.0000
  H   H106      1.0  0.6222727498842668  0.5326767945529851  0.9971644025926011  1.0000
  H   H107      1.0  0.8777272505563944  0.03267679458541439  0.5028355977257017  1.0000
  H   H108      1.0  0.12227274963441355  0.03267679458541439  0.9971644024424894  1.0000
  H   H109      1.0  0.622272749676562  0.4673232053821564  0.4971644021987904  1.0000
  H   H110      1.0  0.37772725017719283  0.4673232053821564  0.0028355978386811363  1.0000
  H   H111      1.0  0.12227274950506507  0.967323205349727  0.49716440270558043  1.0000
  H   H112      1.0  0.8777272503486897  0.967323205349727  0.002835597331891016  1.0000
  C   C1        1.0  0.7012994801715219  0.2171017822107367  0.5075621491582565  1.0000
  C   C2        1.0  0.2987005200192861  0.2171017822107367  0.9924378510099346  1.0000
  C   C3        1.0  0.20129947992166872  0.7171017821783074  0.5075621490081448  1.0000
  C   C4        1.0  0.7987005202691394  0.7171017821783074  0.9924378511600462  1.0000
  C   C5        1.0  0.2987005198899376  0.7828982177244048  0.4924378512730257  1.0000
  C   C6        1.0  0.701299479963817  0.7828982177244048  0.007562148764445758  1.0000
  C   C7        1.0  0.7987005201397909  0.28289821775683405  0.49243785142313734  1.0000
  C   C8        1.0  0.20129947971396372  0.28289821775683405  0.007562148614334138  1.0000
  C   C9        1.0  0.7243698954511976  0.26042290048323213  0.6944110278100983  1.0000
  C   C10       1.0  0.27563010466125415  0.26042290048323213  0.8055889717011911  1.0000
  C   C11       1.0  0.2243698952797007  0.760422900450803  0.6944110283168885  1.0000
  C   C12       1.0  0.7756301049111075  0.760422900450803  0.8055889718513027  1.0000
  C   C13       1.0  0.2756301045319056  0.7395770994519094  0.30558897196428214  1.0000
  C   C14       1.0  0.724369895321849  0.7395770994519094  0.19441102807318933  1.0000
  C   C15       1.0  0.775630104781759  0.23957709948433858  0.3055889721143938  1.0000
  C   C16       1.0  0.22436989507199573  0.23957709948433858  0.1944110279230777  1.0000
  C   C17       1.0  0.7231635742849403  0.34173462084658973  0.7588379809963232  1.0000
  C   C18       1.0  0.27683642513056733  0.34173462084658973  0.7411620191722071  1.0000
  C   C19       1.0  0.22316357481038746  0.8417346216295759  0.7588379808458723  1.0000
  C   C20       1.0  0.7768364253804207  0.8417346216295759  0.7411620193223188  1.0000
  C   C21       1.0  0.2768364257765193  0.6582653790885518  0.241162019434959  1.0000
  C   C22       1.0  0.7231635748525358  0.6582653790885518  0.2588379806021732  1.0000
  C   C23       1.0  0.7768364251727157  0.15826537912098101  0.24116201892850814  1.0000
  C   C24       1.0  0.2231635746026825  0.15826537912098101  0.2588379804520616  1.0000
  C   C25       1.0  0.7959829924477626  0.33841261050709376  0.8325536655881985  1.0000
  C   C26       1.0  0.20401700774304546  0.33841261050709376  0.6674463345799926  1.0000
  C   C27       1.0  0.2959829921979094  0.8384126104746645  0.8325536654380871  1.0000
  C   C28       1.0  0.7040170079145421  0.8384126104746645  0.6674463340732024  1.0000
  C   C29       1.0  0.2040170075353405  0.6615873894280478  0.16744633418618188  1.0000
  C   C30       1.0  0.7959829923184142  0.6615873894280478  0.3325536658512896  1.0000
  C   C31       1.0  0.7040170077851938  0.16158738946047696  0.16744633433629352  1.0000
  C   C32       1.0  0.2959829920685609  0.16158738946047696  0.33255366570117795  1.0000
  C   C33       1.0  0.8698935592224178  0.25486812061455055  0.8419464994916661  1.0000
  C   C34       1.0  0.13010644096839033  0.25486812061455055  0.658053500676525  1.0000
  C   C35       1.0  0.3698935589725645  0.7548681205821213  0.8419464993415545  1.0000
  C   C36       1.0  0.6301064411398871  0.7548681205821213  0.6580535001697349  1.0000
  C   C37       1.0  0.13010644076068537  0.7451318793205909  0.15805350028271428  1.0000
  C   C38       1.0  0.8698935590930693  0.7451318793205909  0.3419464997547572  1.0000
  C   C39       1.0  0.6301064410105387  0.2451318793530202  0.15805350043282587  1.0000
  C   C40       1.0  0.36989355884321595  0.2451318793530202  0.3419464996046456  1.0000
  C   C41       1.0  0.8699691666823393  0.1728485977006441  0.7787746910446482  1.0000
  C   C42       1.0  0.13003083343011235  0.1728485977006441  0.7212253084666412  1.0000
  C   C43       1.0  0.36996916651084244  0.6728485976682149  0.7787746915514383  1.0000
  C   C44       1.0  0.6300308336799657  0.6728485976682149  0.7212253086167529  1.0000
  C   C45       1.0  0.13003083330076387  0.8271514022344975  0.2212253087297323  1.0000
  C   C46       1.0  0.8699691665529907  0.8271514022344975  0.2787746913077392  1.0000
  C   C47       1.0  0.6300308335506172  0.3271514022669267  0.22122530887984393  1.0000
  C   C48       1.0  0.3699691663031375  0.3271514022669267  0.27877469115762754  1.0000
  C   C49       1.0  0.7974206057361315  0.17531385193455906  0.7048729907944155  1.0000
  C   C50       1.0  0.20257939445467665  0.17531385193455906  0.7951270093737757  1.0000
  C   C51       1.0  0.2974206054862782  0.6753138519021298  0.7048729906443039  1.0000
  C   C52       1.0  0.7025793946261735  0.6753138519021298  0.7951270088669855  1.0000
  C   C53       1.0  0.2025793942469717  0.8246861480005824  0.29512700897996497  1.0000
  C   C54       1.0  0.797420605606783  0.8246861480005824  0.20487299105750653  1.0000
  C   C55       1.0  0.7025793944968249  0.3246861480330117  0.29512700913007656  1.0000
  C   C56       1.0  0.29742060535692966  0.3246861480330117  0.20487299090739491  1.0000
  C   C57       1.0  0.5253677577803654  0.1789391910808621  0.6052109596280124  1.0000
  C   C58       1.0  0.47463224155678596  0.1789391910808621  0.8947890398836164  1.0000
  C   C59       1.0  0.025367758384168906  0.6789391910484328  0.6052109601344633  1.0000
  C   C60       1.0  0.9746322418066393  0.6789391910484328  0.8947890400337278  1.0000
  C   C61       1.0  0.47463224220273786  0.8210608088542795  0.394789040146368  1.0000
  C   C62       1.0  0.5253677576510168  0.8210608088542795  0.10521095989110348  1.0000
  C   C63       1.0  0.9746322416772908  0.3210608088867087  0.39478904029681894  1.0000
  C   C64       1.0  0.025367758176463952  0.3210608088867087  0.10521095974065257  1.0000
  C   C65       1.0  0.5416493826301553  0.07319121567233083  0.6387170308099781  1.0000
  C   C66       1.0  0.45835061748229633  0.07319121567233083  0.8612829687013114  1.0000
  C   C67       1.0  0.04164938245865848  0.5731912156399016  0.6387170313167682  1.0000
  C   C68       1.0  0.9583506177321496  0.5731912156399016  0.8612829688514231  1.0000
  C   C69       1.0  0.45835061735294785  0.9268087842628107  0.3612829689644024  1.0000
  C   C70       1.0  0.5416493825008069  0.9268087842628107  0.13871703107306912  1.0000
  C   C71       1.0  0.9583506176028012  0.42680878429523994  0.36128296911451396  1.0000
  C   C72       1.0  0.04164938225095354  0.42680878429523994  0.1387170309229575  1.0000
  C   C73       1.0  0.45788683751209763  0.001619683180856371  0.6396582655677568  1.0000
  C   C74       1.0  0.5421131619034101  0.001619683180856371  0.8603417346007736  1.0000
  C   C75       1.0  0.9578868377619509  0.5016196831484272  0.6396582657178685  1.0000
  C   C76       1.0  0.04211316242885718  0.5016196831484272  0.8603417344503226  1.0000
  C   C77       1.0  0.5421131624710056  0.9983803167542852  0.36034173420662363  1.0000
  C   C78       1.0  0.4578868381580496  0.9983803167542852  0.13965826583050858  1.0000
  C   C79       1.0  0.042113162221152245  0.4983803167867144  0.36034173405651204  1.0000
  C   C80       1.0  0.9578868376326025  0.4983803167867144  0.13965826598095948  1.0000
  C   C81       1.0  0.35786755905728845  0.03524356150859239  0.6074474423913631  1.0000
  C   C82       1.0  0.6421324411335196  0.03524356150859239  0.8925525577768281  1.0000
  C   C83       1.0  0.8578675585318413  0.5352435614761631  0.607447442541814  1.0000
  C   C84       1.0  0.1421324408836664  0.5352435614761631  0.8925525576267164  1.0000
  C   C85       1.0  0.6421324409258147  0.9647564384265492  0.39255255738301736  1.0000
  C   C86       1.0  0.35786755892794  0.9647564384265492  0.10744744265445415  1.0000
  C   C87       1.0  0.1421324414512618  0.4647564384589784  0.39255255723256643  1.0000
  C   C88       1.0  0.8578675590994369  0.4647564384589784  0.10744744214766402  1.0000
  C   C89       1.0  0.3416649132927432  0.14047179361154422  0.5742279834581825  1.0000
  C   C90       1.0  0.6583350868197084  0.14047179361154422  0.925772016053107  1.0000
  C   C91       1.0  0.8416649135425965  0.640471793579115  0.574227983608294  1.0000
  C   C92       1.0  0.15833508664821158  0.640471793579115  0.9257720165598972  1.0000
  C   C93       1.0  0.6583350866903599  0.8595282063235974  0.42577201631619804  1.0000
  C   C94       1.0  0.3416649131633947  0.8595282063235974  0.07422798372127346  1.0000
  C   C95       1.0  0.15833508644050664  0.3595282063560265  0.4257720161660864  1.0000
  C   C96       1.0  0.841664913413248  0.3595282063560265  0.07422798387138509  1.0000
  C   C97       1.0  0.42477296432773015  0.21312200565355863  0.5734239313815025  1.0000
  C   C98       1.0  0.5752270358630779  0.21312200565355863  0.9265760687866886  1.0000
  C   C99       1.0  0.9247729638022831  0.7131220056211294  0.5734239315319534  1.0000
  C   C100      1.0  0.07522703561322465  0.7131220056211294  0.9265760686365772  1.0000
  C   C101      1.0  0.575227035655373  0.7868779942815829  0.42657606839287804  1.0000
  C   C102      1.0  0.42477296419838173  0.7868779942815829  0.07342393164459345  1.0000
  C   C103      1.0  0.07522703618082009  0.2868779943140121  0.4265760682424271  1.0000
  C   C104      1.0  0.9247729643698784  0.2868779943140121  0.07342393113780332  1.0000
  O   O1        1.0  0.5981376439049656  0.38706872403780673  0.5800551754924284  1.0000
  O   O2        1.0  0.4018623562858425  0.38706872403780673  0.9199448246757628  1.0000
  O   O3        1.0  0.09813764365511232  0.8870687240053774  0.5800551753423168  1.0000
  O   O4        1.0  0.9018623556820389  0.8870687240053774  0.9199448241693118  1.0000
  O   O5        1.0  0.40186235607813753  0.6129312758973348  0.41994482428195196  1.0000
  O   O6        1.0  0.5981376437756172  0.6129312758973348  0.08005517575551947  1.0000
  O   O7        1.0  0.9018623555526905  0.11293127592976404  0.4199448244324029  1.0000
  O   O8        1.0  0.09813764430106424  0.11293127592976404  0.08005517560506857  1.0000
  O   O9        1.0  0.43851990549621  0.5062546785656961  0.6220192295830239  1.0000
  O   O10       1.0  0.561480094694598  0.5062546785656961  0.8779807705851672  1.0000
  O   O11       1.0  0.9385199048924064  0.006254678598125271  0.622019229076573  1.0000
  O   O12       1.0  0.061480095220045196  0.006254678598125271  0.8779807704347163  1.0000
  O   O13       1.0  0.5614800945652495  0.4937453213694455  0.3779807708482582  1.0000
  O   O14       1.0  0.4385199052885051  0.4937453213694455  0.12201922918921326  1.0000
  O   O15       1.0  0.061480095090696706  0.9937453213370162  0.37798077069780733  1.0000
  O   O16       1.0  0.9385199047630579  0.9937453213370162  0.12201922933966415  1.0000
  O   O17       1.0  0.3580152391997659  0.48170508649309296  0.5497937356404956  1.0000
  O   O18       1.0  0.6419847609910422  0.48170508649309296  0.9502062645276955  1.0000
  O   O19       1.0  0.858015238674319  0.9817050864606637  0.5497937357909465  1.0000
  O   O20       1.0  0.1419847607411889  0.9817050864606637  0.9502062643775839  1.0000
  O   O21       1.0  0.6419847608616936  0.5182949134420485  0.45020626479078657  1.0000
  O   O22       1.0  0.358015238992061  0.5182949134420485  0.04979373524668491  1.0000
  O   O23       1.0  0.1419847613871408  0.018294913474477776  0.4502062646403357  1.0000
  O   O24       1.0  0.8580152384666139  0.018294913474477776  0.0497937353971358  1.0000
  P   P1        1.0  0.633660386330817  0.27012204442286214  0.5973805443211871  1.0000
  P   P2        1.0  0.3663396130063343  0.27012204442286214  0.9026194551904414  1.0000
  P   P3        1.0  0.13366038693462054  0.7701220443904329  0.5973805448276381  1.0000
  P   P4        1.0  0.8663396132561876  0.7701220443904329  0.902619455340553  1.0000
  P   P5        1.0  0.36633961365228623  0.7298779555122793  0.40261945545319316  1.0000
  P   P6        1.0  0.6336603869767689  0.7298779555122793  0.09738054458393906  1.0000
  P   P7        1.0  0.8663396131268392  0.22987795554470858  0.40261945560364404  1.0000
  P   P8        1.0  0.13366038672691558  0.22987795554470858  0.09738054443382745  1.0000
