data_image0
_chemical_formula_structural       H52C48N28O32
_chemical_formula_sum              "H52 C48 N28 O32"
_cell_length_a       3.7270514707524374
_cell_length_b       20.657865130261044
_cell_length_c       21.373959675636684
_cell_angle_alpha    90.0
_cell_angle_beta     90.0
_cell_angle_gamma    90.0

_space_group_name_H-M_alt    "P 1"
_space_group_IT_number       1

loop_
  _space_group_symop_operation_xyz
  'x, y, z'

loop_
  _atom_site_type_symbol
  _atom_site_label
  _atom_site_symmetry_multiplicity
  _atom_site_fract_x
  _atom_site_fract_y
  _atom_site_fract_z
  _atom_site_occupancy
  H   H1        1.0  0.16537606599663218  0.20718805176679528  0.42654235520019185  1.0000
  H   H2        1.0  0.33462393256088213  0.7928119482205681  0.9265423548344037  1.0000
  H   H3        1.0  0.6653760672372325  0.2928119479848479  0.5734576450039498  1.0000
  H   H4        1.0  0.8346239338014825  0.7071880520025156  0.07345764490187899  1.0000
  H   H5        1.0  0.44634987282967403  0.022251609113598244  0.34654526126214186  1.0000
  H   H6        1.0  0.053650128410926305  0.9777483908737652  0.8465452608963536  1.0000
  H   H7        1.0  0.9463498713871883  0.477748391122122  0.6534547389419998  1.0000
  H   H8        1.0  0.5536501269684405  0.5222516088652414  0.15345473883992894  1.0000
  H   H9        1.0  0.5256619489626937  0.9775078984526621  0.5842651506559469  1.0000
  H   H10       1.0  0.9743380520760213  0.02249210153470145  0.08426515102173504  1.0000
  H   H11       1.0  0.025661947722093303  0.5224921017704217  0.4157348490803358  1.0000
  H   H12       1.0  0.47433805083542097  0.47750789821694173  0.9157348491824067  1.0000
  H   H13       1.0  0.9344634806711899  0.9685523525221681  0.5826574256241097  1.0000
  H   H14       1.0  0.5655365203675251  0.031447647465195294  0.08265742552203881  1.0000
  H   H15       1.0  0.4344634794305895  0.5314476477009156  0.41734257458003204  1.0000
  H   H16       1.0  0.06553652181001082  0.468552352770525  0.9173425746821029  1.0000
  H   H17       1.0  0.5816692946186575  0.6901077212047735  0.6888210164811888  1.0000
  H   H18       1.0  0.9183307037369713  0.30989227878258996  0.1888210163791179  1.0000
  H   H19       1.0  0.0816692960611432  0.8098922785342332  0.31117898372295294  1.0000
  H   H20       1.0  0.41833070517945714  0.1901077214531303  0.8111789838250237  1.0000
  H   H21       1.0  0.36205512872286044  0.803091970316797  0.5204294570967768  1.0000
  H   H22       1.0  0.1379448698346538  0.19690802967056634  0.020429456994706007  1.0000
  H   H23       1.0  0.8620551299634609  0.6969080294222095  0.4795705431073648  1.0000
  H   H24       1.0  0.6379448710752542  0.3030919705651539  0.9795705432094357  1.0000
  H   H25       1.0  0.32010267080082555  0.6797952257626412  0.5755084760462655  1.0000
  H   H26       1.0  0.17989732775668874  0.32020477422472227  0.07550847594419469  1.0000
  H   H27       1.0  0.8201026720414258  0.8202047744604425  0.4244915241578761  1.0000
  H   H28       1.0  0.679897328997289  0.17979522552692093  0.9244915242599471  1.0000
  H   H29       1.0  0.7705419156500717  0.8116440190830176  0.7051899268426507  1.0000
  H   H30       1.0  0.7294580853886433  0.1883559813884229  0.2051899267405799  1.0000
  H   H31       1.0  0.2705419144094713  0.688355981140066  0.29481007336149095  1.0000
  H   H32       1.0  0.22945808414804297  0.31164401884729737  0.7948100734635619  1.0000
  H   H33       1.0  0.6433959522206129  0.876406656536789  0.6049565193453016  1.0000
  H   H34       1.0  0.8566040461350161  0.12359334345057449  0.10495651924323077  1.0000
  H   H35       1.0  0.1433959536630986  0.6235933436862947  0.39504348085884006  1.0000
  H   H36       1.0  0.35660404757750175  0.3764066563010687  0.895043480960911  1.0000
  H   H37       1.0  0.4042000095308222  0.5588543316167015  0.6786837207583482  1.0000
  H   H38       1.0  0.09579998902669207  0.44114566837066194  0.1786837211241363  1.0000
  H   H39       1.0  0.9042000107714225  0.941145668122305  0.3213162789779345  1.0000
  H   H40       1.0  0.5957999902672925  0.05885433186505833  0.8213162790800055  1.0000
  H   H41       1.0  0.5196953718508647  0.4879898259783349  0.7880861195410783  1.0000
  H   H42       1.0  0.9803046265047642  0.5120101740090285  0.2880861194390075  1.0000
  H   H43       1.0  0.019695373293350433  0.01201017377330824  0.21191388066306333  1.0000
  H   H44       1.0  0.48030462794724993  0.9879898262140552  0.7119138807651342  1.0000
  H   H45       1.0  0.8280868520919343  0.6831094147927413  0.8163933545682717  1.0000
  H   H46       1.0  0.6719131462636945  0.31689058519462204  0.3163933544662008  1.0000
  H   H47       1.0  0.32808685353442013  0.8168905854303423  0.18360664516801098  1.0000
  H   H48       1.0  0.1719131477061802  0.1831094145570211  0.6836066452700819  1.0000
  H   H49       1.0  0.7705083904892359  0.5705119859038924  0.8655204075774012  1.0000
  H   H50       1.0  0.7294916078663929  0.42948801408347104  0.3655204074753304  1.0000
  H   H51       1.0  0.27050839193172166  0.9294880138351141  0.13447959215888147  1.0000
  H   H52       1.0  0.22949160930887869  0.07051198615224928  0.6344795922609523  1.0000
  C   C1        1.0  0.230289430327272  0.057848963698065296  0.5010060967882414  1.0000
  C   C2        1.0  0.2697105709133284  0.9421510362892981  0.0010060966861705017  1.0000
  C   C3        1.0  0.7302894288847863  0.44215103653765503  0.49899390341590033  1.0000
  C   C4        1.0  0.7697105694708427  0.5578489634497085  0.9989939030501122  1.0000
  C   C5        1.0  0.16628290616949343  0.12608170125888934  0.48939389279017204  1.0000
  C   C6        1.0  0.3337170950711069  0.8739182987284742  0.9893938924243839  1.0000
  C   C7        1.0  0.6662829047270077  0.37391829897683093  0.5106061074139697  1.0000
  C   C8        1.0  0.8337170963117072  0.6260817010105325  0.010606107311898785  1.0000
  C   C9        1.0  0.20942104130438097  0.1554407631065516  0.43200369094571855  1.0000
  C   C10       1.0  0.2905789572531333  0.8445592368808118  0.9320036910477894  1.0000
  C   C11       1.0  0.7094210425449814  0.3445592366450915  0.5679963087905641  1.0000
  C   C12       1.0  0.7905789584937337  0.655440763342272  0.0679963086884933  1.0000
  C   C13       1.0  0.31310621523678805  0.11748844687947338  0.38082552150026616  1.0000
  C   C14       1.0  0.18689378332072623  0.88251155310789  0.8808255216023371  1.0000
  C   C15       1.0  0.8131062164773885  0.3825115533562469  0.6191744787038755  1.0000
  C   C16       1.0  0.6868937845613267  0.6174884466311166  0.11917447860180468  1.0000
  C   C17       1.0  0.37234879659975045  0.05123145558974933  0.3870778370294438  1.0000
  C   C18       1.0  0.1276512019577638  0.948768544397614  0.8870778371315147  1.0000
  C   C19       1.0  0.8723487978403509  0.448768544645971  0.6129221627068389  1.0000
  C   C20       1.0  0.6276512031983642  0.5512314553413925  0.112922162604768  1.0000
  C   C21       1.0  0.32588321613782095  0.02209769679110261  0.4449525359047308  1.0000
  C   C22       1.0  0.17411678241969328  0.9779023031962608  0.9449525355389427  1.0000
  C   C23       1.0  0.8258832173784214  0.47790230296054054  0.5550474642994109  1.0000
  C   C24       1.0  0.6741167836602937  0.5220976970268228  0.05504746419734004  1.0000
  C   C25       1.0  0.4413036559615708  0.7856610524688282  0.5662045261456453  1.0000
  C   C26       1.0  0.05869634259594346  0.21433894751853516  0.0662045260435745  1.0000
  C   C27       1.0  0.9413036572021711  0.7143389477542554  0.4337954740584964  1.0000
  C   C28       1.0  0.5586963438365438  0.28566105223310795  0.9337954736927082  1.0000
  C   C29       1.0  0.420770121450294  0.7254414197935384  0.5932673983872984  1.0000
  C   C30       1.0  0.07922987979030632  0.2745585801938251  0.0932673987530866  1.0000
  C   C31       1.0  0.9207701200078082  0.7745585799454682  0.40673260134898426  1.0000
  C   C32       1.0  0.5792298783478206  0.22544142004189519  0.906732601451055  1.0000
  C   C33       1.0  0.6534435784189276  0.7921511447002662  0.6626804960311166  1.0000
  C   C34       1.0  0.8465564199367012  0.20784885528709723  0.16268049592904568  1.0000
  C   C35       1.0  0.15344357986141344  0.7078488550387404  0.33731950417302514  1.0000
  C   C36       1.0  0.34655642137918696  0.29215114494862304  0.8373195038072371  1.0000
  C   C37       1.0  0.5160830203430703  0.5736764634328041  0.7231425245748053  1.0000
  C   C38       1.0  0.9839169806956447  0.42632353655455923  0.22314252447273455  1.0000
  C   C39       1.0  0.016083019102469905  0.9263235363062025  0.2768574756293363  1.0000
  C   C40       1.0  0.48391697945504436  0.07367646368116099  0.7768574757314071  1.0000
  C   C41       1.0  0.5714983403676964  0.5381735237352434  0.7766504986402581  1.0000
  C   C42       1.0  0.9285016579879324  0.46182647625212003  0.2766504985381873  1.0000
  C   C43       1.0  0.07149834181018219  0.961826476003763  0.22334950156388356  1.0000
  C   C44       1.0  0.4285016594304182  0.038173523983600285  0.7233495016659545  1.0000
  C   C45       1.0  0.730489901029017  0.6401371810017668  0.7927536898703008  1.0000
  C   C46       1.0  0.7695101000096981  0.3598628189855967  0.29275369023608905  1.0000
  C   C47       1.0  0.2304898997884166  0.8598628192213169  0.20724630986598178  1.0000
  C   C48       1.0  0.26951009876909765  0.14013718076604645  0.7072463099680527  1.0000
  N   N1        1.0  0.05687821101037886  0.16681069017882852  0.5418611312905925  1.0000
  N   N2        1.0  0.4431217902302215  0.8331893098085348  0.0418611311885217  1.0000
  N   N3        1.0  0.556878209567893  0.3331893100568918  0.45813886891354916  1.0000
  N   N4        1.0  0.9431217887877358  0.6668106899304717  0.95813886901562  1.0000
  N   N5        1.0  0.3634226977086923  0.14791368375834624  0.32023898631202546  1.0000
  N   N6        1.0  0.13657730353190806  0.8520863162290172  0.8202389859462373  1.0000
  N   N7        1.0  0.8634226989492926  0.3520863159932969  0.6797610138921162  1.0000
  N   N8        1.0  0.6365773020894223  0.6479136839940666  0.1797610137900454  1.0000
  N   N9        1.0  0.3790785507222328  0.9523971086043868  0.44803601884379163  1.0000
  N   N10       1.0  0.1209214505183676  0.04760289138297678  0.9480360189458625  1.0000
  N   N11       1.0  0.879078549279747  0.5476028916186971  0.5519639813603501  1.0000
  N   N12       1.0  0.620921451758968  0.45239710836866637  0.051963981258279196  1.0000
  N   N13       1.0  0.5874144527330629  0.8263561976205178  0.6105117553334813  1.0000
  N   N14       1.0  0.912585545622566  0.1736438023668456  0.11051175523141053  1.0000
  N   N15       1.0  0.08741445417554862  0.6736438026025658  0.3894882444028013  1.0000
  N   N16       1.0  0.41258554706505174  0.32635619738479754  0.8894882445048722  1.0000
  N   N17       1.0  0.5540728364513557  0.7308322416087543  0.6531657012487622  1.0000
  N   N18       1.0  0.9459271645873593  0.2691677583786091  0.15316570114669134  1.0000
  N   N19       1.0  0.05407283521075538  0.7691677586143294  0.34683429895537954  1.0000
  N   N20       1.0  0.44592716334675886  0.23083224137303401  0.8468342985895914  1.0000
  N   N21       1.0  0.6161837441800503  0.6370253884910376  0.7338926786635637  1.0000
  N   N22       1.0  0.8838162541755785  0.36297461149632587  0.23389267856149282  1.0000
  N   N23       1.0  0.11618374562253604  0.862974611247969  0.26610732154057803  1.0000
  N   N24       1.0  0.3838162556180643  0.1370253887393944  0.7661073216426488  1.0000
  N   N25       1.0  0.7075133549115276  0.5810971629597578  0.8198680331550688  1.0000
  N   N26       1.0  0.7924866434441014  0.41890283702760567  0.319868033052998  1.0000
  N   N27       1.0  0.20751335635401336  0.9189028367792488  0.1801319670490729  1.0000
  N   N28       1.0  0.292486644886587  0.08109716320811462  0.6801319671511438  1.0000
  O   O1        1.0  0.2220978369887887  0.033736656503730075  0.5555438922033193  1.0000
  O   O2        1.0  0.27790216156872555  0.9662633434836333  0.055543892101248486  1.0000
  O   O3        1.0  0.7220978382293891  0.46626334373199024  0.44445610753296333  1.0000
  O   O4        1.0  0.7779021628093259  0.5337366562553733  0.9444561076350342  1.0000
  O   O5        1.0  0.8338772389887494  0.14407627948156662  0.5790532319618651  1.0000
  O   O6        1.0  0.6661227620499656  0.8559237205057969  0.07905323185979428  1.0000
  O   O7        1.0  0.333877237748149  0.3559237207541536  0.42094676824227656  1.0000
  O   O8        1.0  0.16612276080936522  0.6440762792332098  0.9209467683443474  1.0000
  O   O9        1.0  0.18895513666137354  0.22167179140365187  0.5463241199668898  1.0000
  O   O10       1.0  0.31104486457922687  0.7783282085837115  0.04632412033267796  1.0000
  O   O11       1.0  0.6889551352188877  0.27832820883206844  0.4536758797693929  1.0000
  O   O12       1.0  0.8110448631367411  0.721671791155295  0.9536758798714637  1.0000
  O   O13       1.0  0.22844679143325813  0.9214452393783955  0.49045361033169144  1.0000
  O   O14       1.0  0.27155320980734227  0.07855476060896781  0.9904536104337623  1.0000
  O   O15       1.0  0.7284467899907724  0.5785547603606109  0.5095463894045912  1.0000
  O   O16       1.0  0.7715532110479426  0.42144523962675245  0.009546389770379408  1.0000
  O   O17       1.0  0.5697949133960485  0.9266192236853912  0.40711921759255376  1.0000
  O   O18       1.0  0.9302050876426665  0.07338077630197232  0.9071192176946246  1.0000
  O   O19       1.0  0.0697949121554481  0.5733807765376926  0.5928807826115879  1.0000
  O   O20       1.0  0.43020508908515226  0.42661922344967085  0.09288078250951713  1.0000
  O   O21       1.0  0.2702038294621911  0.20539948940727648  0.3139763194018516  1.0000
  O   O22       1.0  0.2297961690953232  0.7946005105800868  0.8139763195039225  1.0000
  O   O23       1.0  0.7702038307027915  0.2946005103443667  0.6860236803344311  1.0000
  O   O24       1.0  0.7297961703359236  0.7053994896429968  0.18602368070021924  1.0000
  O   O25       1.0  0.5014516769264497  0.11481426299591824  0.2776378635524507  1.0000
  O   O26       1.0  0.9985483241122654  0.8851857369914452  0.7776378631866625  1.0000
  O   O27       1.0  0.00145167568584925  0.38518573675572493  0.722362136651691  1.0000
  O   O28       1.0  0.498548322871665  0.6148142632316385  0.2223621365496202  1.0000
  O   O29       1.0  0.7196830365904455  0.9519945379637343  0.6040489897955893  1.0000
  O   O30       1.0  0.7803169644482695  0.04800546202362918  0.10404899016137747  1.0000
  O   O31       1.0  0.21968303534984515  0.5480054617752723  0.3959510099406933  1.0000
  O   O32       1.0  0.28031696320766913  0.45199453821209107  0.8959510100427642  1.0000
