data_image0
_chemical_formula_structural       H88C68N10P6Cl8
_chemical_formula_sum              "H88 C68 N10 P6 Cl8"
_cell_length_a       9.797435910234663
_cell_length_b       12.174812608126512
_cell_length_c       16.304472017615677
_cell_angle_alpha    85.68769910233215
_cell_angle_beta     76.61367604772302
_cell_angle_gamma    80.477504251101

_space_group_name_H-M_alt    "P 1"
_space_group_IT_number       1

loop_
  _space_group_symop_operation_xyz
  'x, y, z'

loop_
  _atom_site_type_symbol
  _atom_site_label
  _atom_site_symmetry_multiplicity
  _atom_site_fract_x
  _atom_site_fract_y
  _atom_site_fract_z
  _atom_site_occupancy
  H   H1        1.0  0.8247209578876475  0.7675695039180127  0.21173608066974184  1.0000
  H   H2        1.0  0.17527904152596557  0.23243049586682535  0.7882639191204328  1.0000
  H   H3        1.0  0.7103543446081971  0.6509151237735068  0.35825327364069065  1.0000
  H   H4        1.0  0.28964565565950245  0.34908487684102396  0.6417467261491919  1.0000
  H   H5        1.0  0.6952613772786099  0.829296164729532  0.9158759856149022  1.0000
  H   H6        1.0  0.30473862291467224  0.17070383502335254  0.08412401480843354  1.0000
  H   H7        1.0  0.708110670232661  0.03064068172642231  0.9146535264510204  1.0000
  H   H8        1.0  0.2918893299606211  0.9693593180264621  0.0853464739723154  1.0000
  H   H9        1.0  0.6661753005006239  0.12728651430180024  0.04720829988285045  1.0000
  H   H10       1.0  0.33382469993345715  0.8727134854797702  0.9527916999095704  1.0000
  H   H11       1.0  0.5760643232228806  0.6624304824064913  0.11505067725271984  1.0000
  H   H12       1.0  0.42393567721120035  0.33756951737507934  0.884949322539701  1.0000
  H   H13       1.0  0.5658652410137992  0.5623465076360267  0.9935735756532384  1.0000
  H   H14       1.0  0.43413475925390044  0.437653492978504  0.006426424136643989  1.0000
  H   H15       1.0  0.6354289989634389  0.6669105565763896  0.9223208331426339  1.0000
  H   H16       1.0  0.3645710014706422  0.33308944320518086  0.07767916664978686  1.0000
  H   H17       1.0  0.465566032393669  0.697967511843705  0.992058450437513  1.0000
  H   H18       1.0  0.5344339680404119  0.30203248793786563  0.00794154935490796  1.0000
  H   H19       1.0  0.8437657655389533  0.6414845325073758  0.09505426905297519  1.0000
  H   H20       1.0  0.15623423448794768  0.35851546807846874  0.9049457313678223  1.0000
  H   H21       1.0  0.8605753234940077  0.634413685641453  0.9850115784424507  1.0000
  H   H22       1.0  0.1394246766992743  0.36558631411143167  0.014988421980885099  1.0000
  H   H23       1.0  0.787744126600643  0.5288536043428795  0.05509910418488483  1.0000
  H   H24       1.0  0.21225587366705648  0.47114639627165117  0.9449008956049977  1.0000
  H   H25       1.0  0.5798897655908739  0.9802634819092073  0.26216055087231377  1.0000
  H   H26       1.0  0.4201102348432071  0.01973651787236327  0.737839448920107  1.0000
  H   H27       1.0  0.3799480618479551  0.1020142004450875  0.21530618850387537  1.0000
  H   H28       1.0  0.6200519383453269  0.8979857993077971  0.7846938119194605  1.0000
  H   H29       1.0  0.4944579068953453  0.20005475461454894  0.1690264673724563  1.0000
  H   H30       1.0  0.5055420933723542  0.7999452459999817  0.8309735324174262  1.0000
  H   H31       1.0  0.458005637189285  0.1730552437722591  0.2797349319135339  1.0000
  H   H32       1.0  0.5419943618171481  0.8269447568168529  0.7202650685050175  1.0000
  H   H33       1.0  0.8302274529680281  0.01854224883604786  0.21128630986897556  1.0000
  H   H34       1.0  0.16977254746605266  0.9814577509455228  0.7887136899234453  1.0000
  H   H35       1.0  0.7226500681615754  0.12333803811076438  0.2778730685806953  1.0000
  H   H36       1.0  0.2773499320317067  0.8766619616421201  0.7221269318426404  1.0000
  H   H37       1.0  0.766579213514452  0.14908924677692958  0.16712526515165815  1.0000
  H   H38       1.0  0.23342078691962886  0.850910753004641  0.8328747346407627  1.0000
  H   H39       1.0  0.2686377113229876  0.6721781631905916  0.591910469194435  1.0000
  H   H40       1.0  0.7313622891110934  0.327821836590979  0.4080895305979858  1.0000
  H   H41       1.0  0.22321870561385443  0.48602576603385356  0.56759736455646  1.0000
  H   H42       1.0  0.7767812948202265  0.513974233747717  0.4324026352359608  1.0000
  H   H43       1.0  0.3019075805012123  0.40716090382110687  0.4258235066885051  1.0000
  H   H44       1.0  0.6980924199328687  0.5928390959604637  0.5741764931039157  1.0000
  H   H45       1.0  0.4489481503608948  0.8549362655695155  0.4147640955519378  1.0000
  H   H46       1.0  0.5510518500731861  0.14506373421205518  0.5852359042404831  1.0000
  H   H47       1.0  0.623074021161243  0.7668591765112454  0.49904130541619274  1.0000
  H   H48       1.0  0.376925978865658  0.23314082407459927  0.5009586950046047  1.0000
  H   H49       1.0  0.4865984165740903  0.7760002848674435  0.5923796361587623  1.0000
  H   H50       1.0  0.5134015836191917  0.22399971488544104  0.40762036426457343  1.0000
  H   H51       1.0  0.5383355726891651  0.8993749968730885  0.5373663576030612  1.0000
  H   H52       1.0  0.46166442757853465  0.10062500374144229  0.46263364218682124  1.0000
  H   H53       1.0  0.1915829356015843  0.894807464081117  0.4771719962450465  1.0000
  H   H54       1.0  0.8084170648324966  0.10519253570045352  0.5228280035473744  1.0000
  H   H55       1.0  0.29059873681671755  0.9763712726536745  0.5203355538393797  1.0000
  H   H56       1.0  0.7094012633765646  0.02362872709920993  0.4796644465839562  1.0000
  H   H57       1.0  0.22239875171817367  0.8615005919792568  0.580170030657121  1.0000
  H   H58       1.0  0.7776012487159072  0.1384994078023138  0.4198299691352999  1.0000
  H   H59       1.0  0.45094484277591396  0.5768890783833465  0.23476379997257038  1.0000
  H   H60       1.0  0.5490551576581669  0.42311092139822415  0.7652361998198504  1.0000
  H   H61       1.0  0.2288809862173391  0.4928720879041151  0.2687460699238778  1.0000
  H   H62       1.0  0.7711190130298927  0.507127912713683  0.7312539298637586  1.0000
  H   H63       1.0  0.3238061400416638  0.363894989814795  0.2964964447382042  1.0000
  H   H64       1.0  0.6761938602260359  0.6361050107997356  0.7035035550516784  1.0000
  H   H65       1.0  0.3651178951478445  0.4197785491008606  0.19206771863664568  1.0000
  H   H66       1.0  0.6348821050454376  0.580221450652024  0.8079322817866901  1.0000
  H   H67       1.0  0.6735231070733557  0.47637129468886585  0.2749187299247678  1.0000
  H   H68       1.0  0.32647689336072533  0.5236287050927048  0.725081269867653  1.0000
  H   H69       1.0  0.6234960561613136  0.4042516264605166  0.19863693151970188  1.0000
  H   H70       1.0  0.37650394386558717  0.5957483741253281  0.8013630689010957  1.0000
  H   H71       1.0  0.5894776824297888  0.3570615885502971  0.3060177369072324  1.0000
  H   H72       1.0  0.4105223180042922  0.6429384112312736  0.6939822628851884  1.0000
  H   H73       1.0  0.09341398076503653  0.08061662055732283  0.23044165802050545  1.0000
  H   H74       1.0  0.9065860186485766  0.9193833792275152  0.7695583417696693  1.0000
  H   H75       1.0  0.014340830091353392  0.2084375680021725  0.11896496877839029  1.0000
  H   H76       1.0  0.9856591703427275  0.7915624317793981  0.8810350310140305  1.0000
  H   H77       1.0  0.9436456647617167  0.4122008911737682  0.14290554534451044  1.0000
  H   H78       1.0  0.056354334651896314  0.5877991086110699  0.8570944544456643  1.0000
  H   H79       1.0  0.9549883444519183  0.4862068091335932  0.2788836585189895  1.0000
  H   H80       1.0  0.04501165455451503  0.5137931914555187  0.7211163418995619  1.0000
  H   H81       1.0  0.03170437033020946  0.35744718994700697  0.39092773676798176  1.0000
  H   H82       1.0  0.9682956290834038  0.642552809837831  0.6090722630221929  1.0000
  H   H83       1.0  0.10917401222906854  0.17560166063726698  0.44379898995999045  1.0000
  H   H84       1.0  0.890825988038631  0.8243983399772637  0.5562010098298921  1.0000
  H   H85       1.0  0.23109088051915355  0.09570399919520488  0.36352761809825146  1.0000
  H   H86       1.0  0.7689091186536606  0.904296000560947  0.6364723823228383  1.0000
  H   H87       1.0  0.05894926495188963  0.0620781937836752  0.40106866482102727  1.0000
  H   H88       1.0  0.9410507352413926  0.9379218059692094  0.5989313356023085  1.0000
  C   C1        1.0  0.4798446199502183  0.7754159303139341  0.25236373959326247  1.0000
  C   C2        1.0  0.5201553794633947  0.22458406947090384  0.7476362601969123  1.0000
  C   C3        1.0  0.7164857654864245  0.7558736278621773  0.23964076706012025  1.0000
  C   C4        1.0  0.28351423494765643  0.2441263719193934  0.7603592327323007  1.0000
  C   C5        1.0  0.6612182351969205  0.6986346723423552  0.31128016439034567  1.0000
  C   C6        1.0  0.3387817649963615  0.30136532741052935  0.6887198360329901  1.0000
  C   C7        1.0  0.6224484496516886  0.8670842586634567  0.12603566101171945  1.0000
  C   C8        1.0  0.3775515497619245  0.13291574112138135  0.8739643387784553  1.0000
  C   C9        1.0  0.6453938074633457  0.80907904562548  0.051454603949358274  1.0000
  C   C10       1.0  0.35460619297073526  0.19092095415609056  0.9485453958430625  1.0000
  C   C11       1.0  0.6767240758114816  0.8704100542518577  0.975305903993708  1.0000
  C   C12       1.0  0.3232759233613328  0.12958994550429437  0.024694096427381663  1.0000
  C   C13       1.0  0.6848614418809501  0.9836240882476531  0.9744130305474861  1.0000
  C   C14       1.0  0.31513855855313083  0.016375911533917594  0.025586969244934768  1.0000
  C   C15       1.0  0.6603855864381977  0.0384710644932658  0.04950565413998054  1.0000
  C   C16       1.0  0.33961441382950197  0.9615289361212649  0.9504943456499021  1.0000
  C   C17       1.0  0.6286833041334261  0.9812865160557793  0.12765090023353595  1.0000
  C   C18       1.0  0.37131669528018707  0.01871348372905873  0.8723490995566389  1.0000
  C   C19       1.0  0.6422914610921526  0.6847766578318223  0.05381950995134221  1.0000
  C   C20       1.0  0.35770853934192814  0.3152233419497482  0.9461804898410786  1.0000
  C   C21       1.0  0.5731414308906377  0.6516959283297178  0.9862085046623155  1.0000
  C   C22       1.0  0.42685856954344314  0.3483040714518527  0.013791495130105398  1.0000
  C   C23       1.0  0.7923561393426236  0.6187090838186174  0.04708485171318212  1.0000
  C   C24       1.0  0.20764385983019062  0.38129091593753445  0.9529151487079076  1.0000
  C   C25       1.0  0.6044582576464174  0.04092931807444383  0.20937032190177876  1.0000
  C   C26       1.0  0.39554174278766346  0.9590706817071267  0.7906296778906422  1.0000
  C   C27       1.0  0.47658814103101893  0.13438219143192628  0.21858406345050432  1.0000
  C   C28       1.0  0.5234118592366808  0.8656178091826044  0.7814159363393781  1.0000
  C   C29       1.0  0.7387463961114112  0.08523108990403278  0.2166873770681847  1.0000
  C   C30       1.0  0.26125360432266975  0.9147689098775379  0.7833126227242362  1.0000
  C   C31       1.0  0.4269990856782929  0.652939422307077  0.3846657667137076  1.0000
  C   C32       1.0  0.5730009133281401  0.34706057828203496  0.6153342337048439  1.0000
  C   C33       1.0  0.3824179652893776  0.7007437463993156  0.46391575697713033  1.0000
  C   C34       1.0  0.617582034978322  0.2992562542152151  0.5360842428127521  1.0000
  C   C35       1.0  0.3093254930020005  0.6377065030157929  0.5297175246690724  1.0000
  C   C36       1.0  0.6906745064116125  0.3622934967690451  0.4702824751211023  1.0000
  C   C37       1.0  0.28386987224359284  0.5322143418812509  0.515894179225023  1.0000
  C   C38       1.0  0.7161301279496893  0.4677856578716336  0.4841058211983127  1.0000
  C   C39       1.0  0.3274999623948656  0.48807554913354556  0.43595194315568486  1.0000
  C   C40       1.0  0.6725000380392153  0.511924450648025  0.564048056636736  1.0000
  C   C41       1.0  0.39954152062089127  0.5482549120062833  0.36770171001419694  1.0000
  C   C42       1.0  0.6004584785519231  0.45174508774986866  0.6322982904068928  1.0000
  C   C43       1.0  0.40817488567322546  0.8169920473071877  0.47719351328194143  1.0000
  C   C44       1.0  0.5918251145200567  0.18300795244569704  0.5228064871413943  1.0000
  C   C45       1.0  0.5207265405280023  0.8143603807365333  0.5293293993482381  1.0000
  C   C46       1.0  0.47927345871922955  0.18563961988126493  0.47067060043939846  1.0000
  C   C47       1.0  0.2696617629075163  0.8912997129883388  0.5162352133693904  1.0000
  C   C48       1.0  0.7303382375265645  0.10870028679323185  0.48376478642303056  1.0000
  C   C49       1.0  0.4442353927409408  0.5041504865804057  0.2791463297071286  1.0000
  C   C50       1.0  0.5557646062654924  0.4958495140087063  0.7208536707114228  1.0000
  C   C51       1.0  0.33398535776896754  0.4417076602809872  0.2585809849537096  1.0000
  C   C52       1.0  0.6660146424243146  0.5582923394718975  0.7414190154696262  1.0000
  C   C53       1.0  0.5912249210832691  0.43182113298382874  0.26391827992188344  1.0000
  C   C54       1.0  0.40877507935081187  0.5681788667977419  0.7360817198705374  1.0000
  C   C55       1.0  0.06831537268621124  0.20995899325446207  0.3187706988651441  1.0000
  C   C56       1.0  0.9316846277478696  0.7900410065271084  0.6812293009272767  1.0000
  C   C57       1.0  0.0622534541500613  0.1696309865773089  0.24138101093158434  1.0000
  C   C58       1.0  0.9377465462840195  0.8303690132042618  0.7586189888608365  1.0000
  C   C59       1.0  0.01762989775165206  0.24157627911262644  0.1786705155447392  1.0000
  C   C60       1.0  0.9823701025160475  0.7584237215019043  0.8213294842451434  1.0000
  C   C61       1.0  0.9779599168642893  0.35563984494583756  0.19197074981441137  1.0000
  C   C62       1.0  0.022040083569791445  0.644360154835733  0.8080292499780095  1.0000
  C   C63       1.0  0.983170423397066  0.3969380247159652  0.2686020084240327  1.0000
  C   C64       1.0  0.01682957601654723  0.6030619750688728  0.731397991366142  1.0000
  C   C65       1.0  0.027624380034373876  0.32455336689235936  0.331249357838116  1.0000
  C   C66       1.0  0.9723756203997072  0.6754466328892114  0.6687506419543048  1.0000
  C   C67       1.0  0.11915531567755974  0.1323280852877649  0.3855444417926125  1.0000
  C   C68       1.0  0.880844684756521  0.8676719144938057  0.6144555579998083  1.0000
  N   N1        1.0  0.1973512614769354  0.8138985884301616  0.32431512937559076  1.0000
  N   N2        1.0  0.8026487389571455  0.18610141135140879  0.6756848704168301  1.0000
  N   N3        1.0  0.03701421248056929  0.7164347370095848  0.24017394173169365  1.0000
  N   N4        1.0  0.9629857875463316  0.2835652635762597  0.7598260586891038  1.0000
  N   N5        1.0  0.2887363108216258  0.782311804839705  0.15357211817198727  1.0000
  N   N6        1.0  0.7112636894460737  0.2176881957748258  0.8464278816178953  1.0000
  N   N7        1.0  0.6040260339178517  0.8026783833472072  0.20472312709168108  1.0000
  N   N8        1.0  0.39597396532938006  0.19732161727059092  0.7952768726959553  1.0000
  N   N9        1.0  0.5157467254061517  0.7110182883236937  0.31817533004430604  1.0000
  N   N10       1.0  0.4842532750279292  0.28898171145787693  0.6818246697481148  1.0000
  P   P1        1.0  0.3066830513466814  0.8526121940050264  0.23531201009317151  1.0000
  P   P2        1.0  0.6933169489210181  0.14738780660950426  0.764687989696711  1.0000
  P   P3        1.0  0.05966721133780817  0.7663420417575229  0.32348735998637707  1.0000
  P   P4        1.0  0.9403327888554739  0.2336579579953616  0.6765126404369587  1.0000
  P   P5        1.0  0.14768676712853152  0.7395179006104486  0.15341387531740255  1.0000
  P   P6        1.0  0.8523132328983694  0.26048209997539595  0.846586125103395  1.0000
  Cl  Cl1       1.0  0.8857710666013211  0.884459676624223  0.3646377919939295  1.0000
  Cl  Cl2       1.0  0.11422893257149305  0.11554032313192908  0.6353622084271603  1.0000
  Cl  Cl3       1.0  0.0174925796658863  0.6468231566890829  0.41682481204213645  1.0000
  Cl  Cl4       1.0  0.9825074207681946  0.3531768430924878  0.5831751877502843  1.0000
  Cl  Cl5       1.0  0.029575742511899445  0.8419072175976392  0.07965753228332031  1.0000
  Cl  Cl6       1.0  0.9704242579221813  0.15809278218393139  0.9203424675091006  1.0000
  Cl  Cl7       1.0  0.18618463324315418  0.598008136057535  0.08835066279029069  1.0000
  Cl  Cl8       1.0  0.8138153670245454  0.4019918645569957  0.9116493369995918  1.0000
