data_image0
_chemical_formula_structural       H18C20N34O36
_chemical_formula_sum              "H18 C20 N34 O36"
_cell_length_a       8.304953855981022
_cell_length_b       11.38994212621519
_cell_length_c       11.91604494703246
_cell_angle_alpha    90.0
_cell_angle_beta     98.51763781591323
_cell_angle_gamma    90.0

_space_group_name_H-M_alt    "P 1"
_space_group_IT_number       1

loop_
  _space_group_symop_operation_xyz
  'x, y, z'

loop_
  _atom_site_type_symbol
  _atom_site_label
  _atom_site_symmetry_multiplicity
  _atom_site_fract_x
  _atom_site_fract_y
  _atom_site_fract_z
  _atom_site_occupancy
  H   H1        1.0  0.7258145002054021  0.6335788496581216  0.6948207310514974  1.0000
  H   H2        1.0  0.2741854996729167  0.13357884905299078  0.3051792692340463  1.0000
  H   H3        1.0  0.7347781763831964  0.4863804283297844  0.7490003089522587  1.0000
  H   H4        1.0  0.2652218234951224  0.9863804280569475  0.25099969133328504  1.0000
  H   H5        1.0  0.6862736495750595  0.510584360794506  0.5994597696226857  1.0000
  H   H6        1.0  0.3137263515207875  0.010584361067342823  0.40054023078983375  1.0000
  H   H7        1.0  0.5798510022936552  0.6347234586346671  0.41145181060049  1.0000
  H   H8        1.0  0.42014899758653773  0.1347234589075039  0.5885481888460435  1.0000
  H   H9        1.0  0.5551248126302295  0.42400334316753646  0.38451751927866756  1.0000
  H   H10       1.0  0.4448751872480893  0.9240033437726672  0.6154824810068762  1.0000
  H   H11       1.0  0.33768224510907036  0.579129496612455  0.09657150356037801  1.0000
  H   H12       1.0  0.6623177547711224  0.0791294968852919  0.9034284958861555  1.0000
  H   H13       1.0  0.9329326984177609  0.43212496652390897  0.19122460386409143  1.0000
  H   H14       1.0  0.06706730267996003  0.9321249662510721  0.8087753957094177  1.0000
  H   H15       1.0  0.9502978154318286  0.644275134911371  0.21042412207379857  1.0000
  H   H16       1.0  0.049702184448364266  0.14427513518420781  0.7895758773727348  1.0000
  H   H17       1.0  0.548903963539974  0.5808467388761345  0.9829697600404438  1.0000
  H   H18       1.0  0.45109603633834483  0.08084673914897138  0.01703024024509978  1.0000
  C   C1        1.0  0.13053536215803388  0.5354485652708554  0.5740330796164931  1.0000
  C   C2        1.0  0.8694646377202849  0.03544856554369219  0.4259669206690506  1.0000
  C   C3        1.0  0.19711106606750164  0.5296691039469483  0.688558443958041  1.0000
  C   C4        1.0  0.8028889338108172  0.02966910421978517  0.3114415563275027  1.0000
  C   C5        1.0  0.06284479266646385  0.5299495636687451  0.7453312997614342  1.0000
  C   C6        1.0  0.9371552072137289  0.029949563063614383  0.25466869968509925  1.0000
  C   C7        1.0  0.7565051944264113  0.5421723808224492  0.6783772563958675  1.0000
  C   C8        1.0  0.24349480545190752  0.04217238109528607  0.32162274388967615  1.0000
  C   C9        1.0  0.6076068287717707  0.6064244807796227  0.32878245947415846  1.0000
  C   C10       1.0  0.392393171108422  0.10642448017449202  0.6712175399723751  1.0000
  C   C11       1.0  0.5923096762734459  0.4689491518755313  0.3113556715556401  1.0000
  C   C12       1.0  0.40769032360487295  0.9689491516026945  0.6886443287299037  1.0000
  C   C13       1.0  0.4562894346557887  0.5666099948959539  0.14866461639463907  1.0000
  C   C14       1.0  0.5437105652225301  0.06660999516879074  0.8513353838909046  1.0000
  C   C15       1.0  0.8148745406575181  0.4729898449264708  0.19607977622509498  1.0000
  C   C16       1.0  0.18512546043832873  0.9729898446536339  0.8039202241874243  1.0000
  C   C17       1.0  0.8267227843963915  0.6109814609139237  0.21036389650605308  1.0000
  C   C18       1.0  0.17327721548192726  0.11098146118676053  0.7896361037794906  1.0000
  C   C19       1.0  0.5986437799260239  0.5680874273370959  0.07220081797214853  1.0000
  C   C20       1.0  0.40135621995229487  0.06808742673196513  0.9277991823133952  1.0000
  N   N1        1.0  0.21809470865205074  0.5382643758908394  0.4791928260229581  1.0000
  N   N2        1.0  0.7819052912262681  0.0382643761636762  0.5208071742625856  1.0000
  N   N3        1.0  0.9274326920333675  0.5354108319799187  0.6640556788089699  1.0000
  N   N4        1.0  0.07256730784495122  0.03541083225275555  0.3359443214765739  1.0000
  N   N5        1.0  0.9672315690468496  0.5389705304885425  0.5602963770315726  1.0000
  N   N6        1.0  0.032768430831469256  0.03897053076137938  0.43970362325397105  1.0000
  N   N7        1.0  0.06647664349691555  0.5234875738548902  0.8660478336721326  1.0000
  N   N8        1.0  0.9335233563814033  0.023487574127727017  0.13395216661341117  1.0000
  N   N9        1.0  0.36720513903423435  0.5209191762567436  0.737939603300894  1.0000
  N   N10       1.0  0.6327948608440845  0.02091917652958041  0.26206039698464983  1.0000
  N   N11       1.0  0.4658019738326132  0.45556535252775926  0.21123094017467983  1.0000
  N   N12       1.0  0.5341980260457055  0.9555653522549225  0.7887690601108639  1.0000
  N   N13       1.0  0.7910912168211189  0.7174860301696324  0.026979626443212  1.0000
  N   N14       1.0  0.20890878305719987  0.21748602956450167  0.9730203738423318  1.0000
  N   N15       1.0  0.8380525849027897  0.7399872814630982  0.3765111544544342  1.0000
  N   N16       1.0  0.16194741497552917  0.23998728085796742  0.6234888458311094  1.0000
  N   N17       1.0  0.3147134635813641  0.404870763073171  0.23166574268266266  1.0000
  N   N18       1.0  0.6852865362988287  0.9048707636783017  0.7683342567638709  1.0000
  N   N19       1.0  0.3577207628169011  0.7227376845974741  0.26629636037393634  1.0000
  N   N20       1.0  0.6422792370614178  0.22273768487031106  0.7337036399116075  1.0000
  N   N21       1.0  0.7707812991525912  0.6414555516646674  0.31563117138290264  1.0000
  N   N22       1.0  0.22921870072572761  0.1414555519375042  0.6843688289026411  1.0000
  N   N23       1.0  0.7453114308711711  0.42294070387877813  0.28911669153333325  1.0000
  N   N24       1.0  0.2546885690071477  0.9229407036059413  0.7108833087522104  1.0000
  N   N25       1.0  0.4879259668219736  0.6542013969368629  0.2379748023766157  1.0000
  N   N26       1.0  0.5120740330563451  0.1542013972096997  0.7620251979089281  1.0000
  N   N27       1.0  0.8174437822450217  0.3267772898892498  0.35001486343321536  1.0000
  N   N28       1.0  0.18255621885082526  0.8267772904943805  0.6499851369793039  1.0000
  N   N29       1.0  0.7034563414665126  0.46428391131406266  0.08902791376472939  1.0000
  N   N30       1.0  0.2965436584118062  0.9642839119191934  0.9109720865208143  1.0000
  N   N31       1.0  0.7166737549458938  0.6582196271870993  0.1121607224002549  1.0000
  N   N32       1.0  0.283326244932425  0.1582196265819685  0.8878392778852887  1.0000
  N   N33       1.0  0.652037133057152  0.3561919845635  0.044776086543264856  1.0000
  N   N34       1.0  0.3479628668211667  0.8561919842906632  0.9552239137422788  1.0000
  O   O1        1.0  0.14053772835171646  0.5466095798389111  0.38270163951659636  1.0000
  O   O2        1.0  0.8594622727460045  0.04660958011174798  0.6172983600569129  1.0000
  O   O3        1.0  0.3690852619602985  0.5322455446061558  0.5020179474189964  1.0000
  O   O4        1.0  0.6309147391355484  0.03224554400102499  0.497982052993523  1.0000
  O   O5        1.0  0.4243174631653323  0.4209365944858549  0.7466173788222561  1.0000
  O   O6        1.0  0.5756825367148605  0.9209365950909857  0.25338262062427747  1.0000
  O   O7        1.0  0.9368748615013439  0.52734848284922  0.9053443103934491  1.0000
  O   O8        1.0  0.06312513837697487  0.027348482244089225  0.09465568989209455  1.0000
  O   O9        1.0  0.2045280090288761  0.5141385026462743  0.9216230738720141  1.0000
  O   O10       1.0  0.7954719908513166  0.0141385029191111  0.07837692557451947  1.0000
  O   O11       1.0  0.4399473505087971  0.6132541247881695  0.7653616999140996  1.0000
  O   O12       1.0  0.5600526493695218  0.11325412506100635  0.23463830037144404  1.0000
  O   O13       1.0  0.1928175653628806  0.4353241364227738  0.16725611834921203  1.0000
  O   O14       1.0  0.8071824345154383  0.9353241361499369  0.8327438819363318  1.0000
  O   O15       1.0  0.37690041728228807  0.7653716000835191  0.3621818609409005  1.0000
  O   O16       1.0  0.6230995825979049  0.2653716003563559  0.637818138505633  1.0000
  O   O17       1.0  0.9462236758443399  0.29072471776468434  0.32311390680120144  1.0000
  O   O18       1.0  0.053776324033978994  0.7907247174918475  0.6768860934843423  1.0000
  O   O19       1.0  0.7719878906843014  0.771456625734394  0.4574703675052521  1.0000
  O   O20       1.0  0.2280121091940174  0.27145662600723075  0.5425296327802916  1.0000
  O   O21       1.0  0.9599201264298058  0.7832883899792559  0.3452124514559486  1.0000
  O   O22       1.0  0.040079873448513006  0.28328838937412515  0.6547875488295951  1.0000
  O   O23       1.0  0.3252389546492414  0.3319958537187529  0.30827929384253927  1.0000
  O   O24       1.0  0.6747610452290774  0.8319958543238837  0.6917207064430043  1.0000
  O   O25       1.0  0.713685279066009  0.7171644130833112  0.930918803131587  1.0000
  O   O26       1.0  0.2863147208123098  0.21716441335614806  0.06908119715395665  1.0000
  O   O27       1.0  0.9206167020100979  0.7670135092163984  0.06029885562100181  1.0000
  O   O28       1.0  0.07938329787009485  0.26701350948923525  0.9397011438255317  1.0000
  O   O29       1.0  0.24186922796252264  0.7375022187923359  0.19024671792368217  1.0000
  O   O30       1.0  0.7581307719176701  0.23750221906517274  0.8097532815228514  1.0000
  O   O31       1.0  0.7460751395179044  0.28852195854765067  0.42610496709397605  1.0000
  O   O32       1.0  0.25392486036041445  0.7885219591527814  0.5738950331915676  1.0000
  O   O33       1.0  0.7345452182820181  0.27036256777041856  0.08104286041533  1.0000
  O   O34       1.0  0.2654547815963007  0.7703625683755493  0.9189571398702138  1.0000
  O   O35       1.0  0.5302088009881528  0.35673236307743766  0.971262974804302  1.0000
  O   O36       1.0  0.46979119889203996  0.8567323628046009  0.028737024642231525  1.0000
