data_image0
_chemical_formula_structural       H18C26N2I6
_chemical_formula_sum              "H18 C26 N2 I6"
_cell_length_a       9.418709198007654
_cell_length_b       11.612163533385095
_cell_length_c       6.926526264374171
_cell_angle_alpha    105.5383153216219
_cell_angle_beta     92.99165301332685
_cell_angle_gamma    105.95782125868483

_space_group_name_H-M_alt    "P 1"
_space_group_IT_number       1

loop_
  _space_group_symop_operation_xyz
  'x, y, z'

loop_
  _atom_site_type_symbol
  _atom_site_label
  _atom_site_symmetry_multiplicity
  _atom_site_fract_x
  _atom_site_fract_y
  _atom_site_fract_z
  _atom_site_occupancy
  H   H1        1.0  0.44145649925459723  0.5277146490368129  0.8432885799768365  1.0000
  H   H2        1.0  0.5585435000166625  0.4722853511196757  0.15671142043411648  1.0000
  H   H3        1.0  0.613881845035419  0.7388100590621943  0.8810327407986183  1.0000
  H   H4        1.0  0.38611815392998594  0.26118994020084496  0.1189672596244098  1.0000
  H   H5        1.0  0.5183000146253174  0.9131469230917767  0.853215718468562  1.0000
  H   H6        1.0  0.48169998555471394  0.08685307677962913  0.1467842804323173  1.0000
  H   H7        1.0  0.24404323025205968  0.8783310606121275  0.7951336298803505  1.0000
  H   H8        1.0  0.7559567697743033  0.121668938648424  0.20486637054506823  1.0000
  H   H9        1.0  0.9888410212963661  0.7372898987932944  0.7410982995975754  1.0000
  H   H10       1.0  0.011158979035851755  0.26271010136070627  0.25890170081576813  1.0000
  H   H11       1.0  0.7334331826798813  0.5931704498415189  0.6880729609235592  1.0000
  H   H12       1.0  0.26656681643919183  0.40682955003237475  0.3119270379749296  1.0000
  H   H13       1.0  0.5629471415272204  0.3794866609516148  0.659132879609862  1.0000
  H   H14       1.0  0.4370528583469561  0.6205133380263417  0.3408671193030926  1.0000
  H   H15       1.0  0.6692120163001358  0.21264688787205066  0.6971976416086639  1.0000
  H   H16       1.0  0.3307879829711237  0.7873531122844376  0.30280235880228884  1.0000
  H   H17       1.0  0.9403775139125586  0.25006206732336056  0.7513940498337429  1.0000
  H   H18       1.0  0.05962248641965919  0.7499379328306401  0.24860595057960064  1.0000
  C   C1        1.0  0.24212295511229293  0.5808528398541346  0.7970225277221242  1.0000
  C   C2        1.0  0.7578770447618834  0.4191471591238218  0.20297747119083032  1.0000
  C   C3        1.0  0.3988433481807434  0.6040987881048393  0.8314729164896243  1.0000
  C   C4        1.0  0.601156651999288  0.39590121176656656  0.16852708241125522  1.0000
  C   C5        1.0  0.4939511454258791  0.721467021117517  0.8517843086531869  1.0000
  C   C6        1.0  0.5060488549063388  0.2785329790364837  0.1482156917601567  1.0000
  C   C7        1.0  0.4394865155714625  0.8218488589878497  0.8383601068145149  1.0000
  C   C8        1.0  0.5605134847607552  0.17815114116615094  0.1616398935988288  1.0000
  C   C9        1.0  0.2887273253932266  0.8027817386778039  0.8063825678069222  1.0000
  C   C10       1.0  0.7112726749389913  0.1972182614761968  0.19361743260642142  1.0000
  C   C11       1.0  0.1862589549593342  0.6830706430426171  0.7854817335208979  1.0000
  C   C12       1.0  0.8137410443119255  0.31692935711387143  0.21451826689005504  1.0000
  C   C13       1.0  0.032453262878497514  0.6610173553182161  0.7524369242597423  1.0000
  C   C14       1.0  0.9675467362405755  0.3389826445556775  0.24756307463874652  1.0000
  C   C15       1.0  0.9343291052234998  0.5433263450869811  0.7364973714295895  1.0000
  C   C16       1.0  0.06567089510871804  0.45667365506701973  0.26350262898375415  1.0000
  C   C17       1.0  0.7766614985017805  0.5175448775724563  0.7035789884159076  1.0000
  C   C18       1.0  0.22333850167825076  0.48245512229894955  0.29642101048497194  1.0000
  C   C19       1.0  0.6834939135359367  0.40040770025518335  0.6870936971564211  1.0000
  C   C20       1.0  0.3165060867962813  0.5995922998988173  0.3129063032569225  1.0000
  C   C21       1.0  0.7444757839593965  0.3044660851911842  0.7061151990346036  1.0000
  C   C22       1.0  0.2555242163728213  0.6955339149628165  0.29388480137874007  1.0000
  C   C23       1.0  0.8959263945003392  0.3251419207856087  0.7372254377420431  1.0000
  C   C24       1.0  0.10407360461873394  0.6748580790882849  0.26277456115644565  1.0000
  C   C25       1.0  0.9958488275343352  0.44443572616512605  0.7511274153529024  1.0000
  C   C26       1.0  0.004151172797882614  0.5555642739888746  0.2488725850604412  1.0000
  N   N1        1.0  0.14597762691112795  0.46594135092742583  0.7767192725039072  1.0000
  N   N2        1.0  0.85402237342109  0.5340586492265749  0.22328072790943645  1.0000
  I   I1        1.0  0.2367230934583331  0.2884151636327695  0.7092692433924602  1.0000
  I   I2        1.0  0.7632769058129266  0.711584836523719  0.2907307570184927  1.0000
  I   I3        1.0  0.33752427202209667  0.071922611391681  0.583465790324003  1.0000
  I   I4        1.0  0.6624757270969764  0.9280773884822126  0.41653420857448564  1.0000
  I   I5        1.0  0.10223089146189765  0.018232596264449796  0.16821574667590386  1.0000
  I   I6        1.0  0.8977691087181336  0.9817674036069559  0.8317842522249755  1.0000
