data_image0
_chemical_formula_structural       H16C26N2Cl2I2
_chemical_formula_sum              "H16 C26 N2 Cl2 I2"
_cell_length_a       6.746628929116831
_cell_length_b       8.946932735476912
_cell_length_c       9.514293259161276
_cell_angle_alpha    82.10628956012654
_cell_angle_beta     87.94049740271471
_cell_angle_gamma    77.4392218722264

_space_group_name_H-M_alt    "P 1"
_space_group_IT_number       1

loop_
  _space_group_symop_operation_xyz
  'x, y, z'

loop_
  _atom_site_type_symbol
  _atom_site_label
  _atom_site_symmetry_multiplicity
  _atom_site_fract_x
  _atom_site_fract_y
  _atom_site_fract_z
  _atom_site_occupancy
  H   H1        1.0  0.2166186671658651  0.9440846770874339  0.45587812663485205  1.0000
  H   H2        1.0  0.7833813331951992  0.05591532258341684  0.5441218730527908  1.0000
  H   H3        1.0  0.12381751968600647  0.20669809298522387  0.5322428545451193  1.0000
  H   H4        1.0  0.8761824803220452  0.79330190768863  0.4677571461943179  1.0000
  H   H5        1.0  0.07529341249627787  0.4406124350084392  0.3528544592059445  1.0000
  H   H6        1.0  0.9247065878647865  0.5593875646624115  0.6471455404816984  1.0000
  H   H7        1.0  0.11287048191232506  0.4157698944820586  0.09702749538313112  1.0000
  H   H8        1.0  0.8871295184487393  0.5842301051887921  0.9029725043045117  1.0000
  H   H9        1.0  0.27636185288090653  0.059396968605740494  0.7185869825870389  1.0000
  H   H10       1.0  0.7236381471358873  0.9406030322114657  0.2814130170913169  1.0000
  H   H11       1.0  0.35873599790495714  0.790235018944055  0.662096429837379  1.0000
  H   H12       1.0  0.6412640021030946  0.20976498172979885  0.33790357090205825  1.0000
  H   H13       1.0  0.3826058829706771  0.5702570096477606  0.8546965103163457  1.0000
  H   H14       1.0  0.6173941170373747  0.42974299102609315  0.1453034904230915  1.0000
  H   H15       1.0  0.33742806294122507  0.6173896878860345  0.10759050842864425  1.0000
  H   H16       1.0  0.6625719374198393  0.3826103117848161  0.8924094912589985  1.0000
  C   C1        1.0  0.2151310937116763  0.028835631108012585  0.23265169395277135  1.0000
  C   C2        1.0  0.7848689063051175  0.9711643697091935  0.7673483057255844  1.0000
  C   C3        1.0  0.19363124229617848  0.048163789977836914  0.37896426546756634  1.0000
  C   C4        1.0  0.8063687565858528  0.9518362096817273  0.621035734222807  1.0000
  C   C5        1.0  0.14319061594865956  0.19281469617624  0.42020334386435504  1.0000
  C   C6        1.0  0.8568093844036627  0.8071853033512584  0.5797966568843692  1.0000
  C   C7        1.0  0.11359757328944672  0.3268238783366034  0.31766966973065697  1.0000
  C   C8        1.0  0.8864024255838425  0.6731761211796086  0.682330331020798  1.0000
  C   C9        1.0  0.13481666827157238  0.313292131577853  0.17570275381100267  1.0000
  C   C10       1.0  0.8651833317452213  0.6867078692393531  0.8242972458673532  1.0000
  C   C11       1.0  0.18474367563943006  0.1655512924714218  0.12844345235174717  1.0000
  C   C12       1.0  0.8152563243773637  0.8344487083457842  0.8715565473266088  1.0000
  C   C13       1.0  0.20629499582922856  0.14264798908504825  0.9850629439201694  1.0000
  C   C14       1.0  0.7937050045318358  0.8573520105858026  0.014937055767473433  1.0000
  C   C15       1.0  0.2573317899245552  0.993297788324575  0.9453572358089097  1.0000
  C   C16       1.0  0.7426682104365092  0.006702211346275667  0.05464276387873302  1.0000
  C   C17       1.0  0.28766381726599843  0.9623093781612022  0.80254821521051  1.0000
  C   C18       1.0  0.712336183095066  0.03769062150964853  0.1974517844771328  1.0000
  C   C19       1.0  0.33375044346145755  0.8133187604104747  0.7715377304919594  1.0000
  C   C20       1.0  0.6662495565465941  0.18668124026337907  0.2284622702474779  1.0000
  C   C21       1.0  0.349978344131782  0.6875041027678045  0.8819827381864576  1.0000
  C   C22       1.0  0.6500216562205404  0.31249589675969397  0.11801726256226668  1.0000
  C   C23       1.0  0.32535046600269135  0.7123667969232251  0.021302860593629205  1.0000
  C   C24       1.0  0.6746495340053604  0.28763320375062856  0.9786971401458081  1.0000
  C   C25       1.0  0.28075644316655823  0.865035792950541  0.05846408254977096  1.0000
  C   C26       1.0  0.7192435568502354  0.13496420786666527  0.941535917128585  1.0000
  N   N1        1.0  0.2605720906941488  0.8848836322318657  0.1965987048402057  1.0000
  N   N2        1.0  0.7394279096581736  0.11511636729563261  0.8034012959085185  1.0000
  Cl  Cl1       1.0  0.1696355492734734  0.3001030744574905  0.8550913927853593  1.0000
  Cl  Cl2       1.0  0.8303644510875909  0.6998969252133603  0.14490860690228355  1.0000
  I   I1        1.0  0.4113137939229488  0.6272602153291454  0.4038507993552738  1.0000
  I   I2        1.0  0.5886862064381158  0.3727397843417054  0.5961492003323691  1.0000
