data_image0
_chemical_formula_structural       H46C64N12
_chemical_formula_sum              "H46 C64 N12"
_cell_length_a       9.759783784730779
_cell_length_b       10.42781714027211
_cell_length_c       12.375876266025296
_cell_angle_alpha    108.80142306981135
_cell_angle_beta     100.302955779594
_cell_angle_gamma    93.82775657678278

_space_group_name_H-M_alt    "P 1"
_space_group_IT_number       1

loop_
  _space_group_symop_operation_xyz
  'x, y, z'

loop_
  _atom_site_type_symbol
  _atom_site_label
  _atom_site_symmetry_multiplicity
  _atom_site_fract_x
  _atom_site_fract_y
  _atom_site_fract_z
  _atom_site_occupancy
  H   H1        1.0  0.32056538027151293  0.7334949260569459  0.23407435192497228  1.0000
  H   H2        1.0  0.6794346202383468  0.26650507454362704  0.7659256482322595  1.0000
  H   H3        1.0  0.5592178224167602  0.6702496556592984  0.22610240728349834  1.0000
  H   H4        1.0  0.44078217690854515  0.3297503439223978  0.7738975924182209  1.0000
  H   H5        1.0  0.693011834014648  0.7430180945479431  0.09215000043450931  1.0000
  H   H6        1.0  0.3069881653106574  0.25698190503375307  0.90784999926721  1.0000
  H   H7        1.0  0.5768507010779045  0.8795034243098014  0.9783700960606545  1.0000
  H   H8        1.0  0.42314929824740083  0.12049657527189478  0.021629903641064843  1.0000
  H   H9        1.0  0.1489930544684732  0.8388633746026637  0.17621626166331278  1.0000
  H   H10       1.0  0.8510069450005303  0.1611366260012123  0.8237837383374038  1.0000
  H   H11       1.0  0.950530812328936  0.9289952629836012  0.1628977876390268  1.0000
  H   H12       1.0  0.04946918699636936  0.07100473659809504  0.8371022120626925  1.0000
  H   H13       1.0  0.2251549480450576  0.9587939389440575  0.9340361583903867  1.0000
  H   H14       1.0  0.7748450512802477  0.04120606063763863  0.06596384131133243  1.0000
  H   H15       1.0  0.6339625412583704  0.5760320981046402  0.8407570319145272  1.0000
  H   H16       1.0  0.36603745925148923  0.42396790249593264  0.15924296824270456  1.0000
  H   H17       1.0  0.8657199979688276  0.7236924869349654  0.9269233681536226  1.0000
  H   H18       1.0  0.1342800013564778  0.276307512646731  0.07307663154809656  1.0000
  H   H19       1.0  0.04283893488694804  0.7227317776865624  0.8062420223655932  1.0000
  H   H20       1.0  0.9571610654792133  0.2772682218918307  0.19375797749264126  1.0000
  H   H21       1.0  0.9936476235310564  0.5741258713508174  0.5969731825565046  1.0000
  H   H22       1.0  0.006352376835105112  0.4258741282275758  0.40302681730172996  1.0000
  H   H23       1.0  0.6790856134808244  0.2494335193828102  0.26823311707400316  1.0000
  H   H24       1.0  0.32091438702903524  0.7505664812177627  0.7317668830832286  1.0000
  H   H25       1.0  0.44426820434618175  0.10899350724445192  0.18094214772646194  1.0000
  H   H26       1.0  0.5557317949791237  0.8910064923372445  0.8190578519752575  1.0000
  H   H27       1.0  0.26256781458373557  0.12003573405401274  0.2989579022976674  1.0000
  H   H28       1.0  0.7374321847415698  0.8799642655276836  0.7010420974040519  1.0000
  H   H29       1.0  0.3135602850143333  0.26413256102410354  0.5085045791773376  1.0000
  H   H30       1.0  0.6864397143109721  0.7358674385575926  0.4914954205243817  1.0000
  H   H31       1.0  0.0033976418845072403  0.37063750808167945  0.934716217861776  1.0000
  H   H32       1.0  0.9966023586253524  0.6293624925188935  0.06528378229545569  1.0000
  H   H33       1.0  0.21262803163729016  0.548619413288817  0.01810093923420915  1.0000
  H   H34       1.0  0.7873719678317134  0.45138058731505903  0.9818990607665075  1.0000
  H   H35       1.0  0.3577775445144755  0.6032572433432898  0.8893199104187716  1.0000
  H   H36       1.0  0.6422224558516859  0.3967427562351034  0.11068008943946286  1.0000
  H   H37       1.0  0.3031363900429987  0.47251874506049185  0.6757723346910779  1.0000
  H   H38       1.0  0.6968636104668611  0.5274812555400812  0.32422766546615395  1.0000
  H   H39       1.0  0.003926675685733124  0.13412246132393427  0.3451152936583025  1.0000
  H   H40       1.0  0.9960733246804284  0.8658775382544589  0.654884706199932  1.0000
  H   H41       1.0  0.7808720505968402  0.9703935251198821  0.2604601618490256  1.0000
  H   H42       1.0  0.21912794991301943  0.029606475480690824  0.7395398383082061  1.0000
  H   H43       1.0  0.6286140906405078  0.9283255008256595  0.3879786508387425  1.0000
  H   H44       1.0  0.3713859098693518  0.07167449977491346  0.6120213493184893  1.0000
  H   H45       1.0  0.6920868045145888  0.05023823770045183  0.6027739409670737  1.0000
  H   H46       1.0  0.3079131958515726  0.9497617618779413  0.3972260588911607  1.0000
  C   C1        1.0  0.3215398154111955  0.8368991251595055  0.10702502762038966  1.0000
  C   C2        1.0  0.6784601850986641  0.16310087544106755  0.8929749725368421  1.0000
  C   C3        1.0  0.3807908120754835  0.7629541633272717  0.17781973023871953  1.0000
  C   C4        1.0  0.6192091872498219  0.2370458362544245  0.8221802694629997  1.0000
  C   C5        1.0  0.5139865839786558  0.728230652849644  0.17285247258093792  1.0000
  C   C6        1.0  0.4860134154903479  0.2717693477542321  0.8271475274197787  1.0000
  C   C7        1.0  0.587859136619201  0.76844990156961  0.09898379077993084  1.0000
  C   C8        1.0  0.4121408627061044  0.23155009801208626  0.9010162089217885  1.0000
  C   C9        1.0  0.5221634954377996  0.8424299401902344  0.03424936732916732  1.0000
  C   C10       1.0  0.4778365038875057  0.15757005939146163  0.965750632372552  1.0000
  C   C11       1.0  0.10008495704371245  0.9356088876576888  0.055601330888676366  1.0000
  C   C12       1.0  0.8999150434661471  0.06439111294288415  0.9443986692685555  1.0000
  C   C13       1.0  0.9720145869018302  0.9606466160520735  0.0909795998574989  1.0000
  C   C14       1.0  0.0279854136080295  0.03935338454849954  0.9090204002997329  1.0000
  C   C15       1.0  0.12696281519292563  0.9768408068729797  0.9626681264170116  1.0000
  C   C16       1.0  0.8730371853030695  0.023159193726184437  0.03733187454583519  1.0000
  C   C17       1.0  0.6809229096203515  0.49147296002655877  0.6692977205541408  1.0000
  C   C18       1.0  0.31907709074580987  0.5085270395518342  0.3307022793040937  1.0000
  C   C19       1.0  0.7135532838886061  0.5762309027542645  0.7891455978826032  1.0000
  C   C20       1.0  0.28644671647755526  0.4237690968241286  0.2108544019756312  1.0000
  C   C21       1.0  0.8412578090864147  0.6569476371295481  0.8358602909188323  1.0000
  C   C22       1.0  0.15874219127974687  0.34305236244884496  0.16413970893940216  1.0000
  C   C23       1.0  0.9428554673748782  0.65677944691094  0.7662690669524386  1.0000
  C   C24       1.0  0.05714453299128308  0.3432205526674532  0.23373093290579586  1.0000
  C   C25       1.0  0.9164618631201915  0.5753848985809228  0.6508606949928222  1.0000
  C   C26       1.0  0.08353813724596984  0.4246151009974703  0.3491393048654123  1.0000
  C   C27       1.0  0.7850652163898939  0.49021488183590806  0.5988650926308916  1.0000
  C   C28       1.0  0.21493478397626758  0.5097851177424852  0.4011349072273428  1.0000
  C   C29       1.0  0.6327561327537675  0.33501552771112086  0.43995549774976606  1.0000
  C   C30       1.0  0.36724386671523607  0.6649844728927551  0.5600445022509505  1.0000
  C   C31       1.0  0.5993578505925972  0.25080265713826516  0.31992140020122833  1.0000
  C   C32       1.0  0.4006421488764064  0.7491973434656108  0.6800785997994884  1.0000
  C   C33       1.0  0.4694644216942519  0.17452298528732654  0.2721932473350009  1.0000
  C   C34       1.0  0.5305355788017433  0.8254770153118376  0.7278067536278461  1.0000
  C   C35       1.0  0.3659549630859256  0.1789996624546298  0.34060436607571365  1.0000
  C   C36       1.0  0.6340450362393798  0.8210003371270663  0.6593956336260056  1.0000
  C   C37       1.0  0.393747863958979  0.258136168310599  0.4566271773744273  1.0000
  C   C38       1.0  0.6062521353663264  0.7418638312710972  0.5433728223272919  1.0000
  C   C39       1.0  0.5278603855536899  0.33772741114119104  0.5098912125992152  1.0000
  C   C40       1.0  0.4721396137716155  0.6622725884405052  0.49010878710250405  1.0000
  C   C41       1.0  0.032072841124647755  0.3212125258597959  0.7569279938916202  1.0000
  C   C42       1.0  0.9679271593852118  0.6787874747407769  0.24307200626561148  1.0000
  C   C43       1.0  0.06858826090676233  0.3944687072086757  0.8790777168065195  1.0000
  C   C44       1.0  0.9314117394593991  0.6055312923697176  0.12092228305171487  1.0000
  C   C45       1.0  0.18352958153544593  0.49338672291108954  0.924387271917693  1.0000
  C   C46       1.0  0.8164704188307155  0.5066132766673036  0.07561272794054136  1.0000
  C   C47       1.0  0.2675340548426499  0.5237483747238582  0.8505629259544865  1.0000
  C   C48       1.0  0.7324659446263536  0.4762516258800179  0.1494370740462301  1.0000
  C   C49       1.0  0.237626013465294  0.4526648681890029  0.7326035235714949  1.0000
  C   C50       1.0  0.7623739858600114  0.5473351313926934  0.2673964761302244  1.0000
  C   C51       1.0  0.11952704917401423  0.34887912231349427  0.68203124538399  1.0000
  C   C52       1.0  0.8804729501512912  0.651120877268202  0.31796875431772925  1.0000
  C   C53       1.0  0.9739305136906713  0.18746168083636533  0.5224684766713982  1.0000
  C   C54       1.0  0.026069485634634265  0.8125383187453309  0.47753152303032104  1.0000
  C   C55       1.0  0.9355209265641162  0.11396798631312366  0.40003945729577645  1.0000
  C   C56       1.0  0.06447907394574331  0.8860320142874492  0.5999605428614553  1.0000
  C   C57       1.0  0.8133724571111863  0.024269918572150186  0.35425843983996524  1.0000
  C   C58       1.0  0.18662754235781737  0.975730082031726  0.6457415601607515  1.0000
  C   C59       1.0  0.7245503324091136  0.000603002417451501  0.4273720385120383  1.0000
  C   C60       1.0  0.27544966705989  0.9993969981864245  0.5726279614886782  1.0000
  C   C61       1.0  0.7587660970425194  0.06755864562183551  0.5457479190594766  1.0000
  C   C62       1.0  0.24123390332364195  0.9324413539565576  0.45425208079875784  1.0000
  C   C63       1.0  0.8837242466273105  0.16234222508635707  0.59659719614653  1.0000
  C   C64       1.0  0.11627575373885057  0.8376577744920359  0.4034028037117045  1.0000
  N   N1        1.0  0.39155686650937394  0.8760787743438695  0.03610108052012129  1.0000
  N   N2        1.0  0.6084431340004858  0.12392122625670349  0.9638989196371106  1.0000
  N   N3        1.0  0.188370096816336  0.8688427543333409  0.11446654028648037  1.0000
  N   N4        1.0  0.8116299026526677  0.13115724627053513  0.8855334597142362  1.0000
  N   N5        1.0  0.5541151275205161  0.41526855778561955  0.6236863803970203  1.0000
  N   N6        1.0  0.44588487180478936  0.5847314417960766  0.3763136193046989  1.0000
  N   N7        1.0  0.7597575305300738  0.4107518478529337  0.48564286063745044  1.0000
  N   N8        1.0  0.24024246879523173  0.5892481517287625  0.5143571390642688  1.0000
  N   N9        1.0  0.9168266727167632  0.2272729433351202  0.7128405446202806  1.0000
  N   N10       1.0  0.08317332660854232  0.772727056246576  0.28715945508143875  1.0000
  N   N11       1.0  0.09093655140509399  0.278811126776268  0.5665036162801356  1.0000
  N   N12       1.0  0.9090634491047657  0.7211888738243049  0.43349638387709616  1.0000
