data_image0
_chemical_formula_structural       H92C88N8O4I8
_chemical_formula_sum              "H92 C88 N8 O4 I8"
_cell_length_a       12.680496611331561
_cell_length_b       6.622628800415455
_cell_length_c       24.61242315166742
_cell_angle_alpha    90.0
_cell_angle_beta     95.98707533621563
_cell_angle_gamma    90.0

_space_group_name_H-M_alt    "P 1"
_space_group_IT_number       1

loop_
  _space_group_symop_operation_xyz
  'x, y, z'

loop_
  _atom_site_type_symbol
  _atom_site_label
  _atom_site_symmetry_multiplicity
  _atom_site_fract_x
  _atom_site_fract_y
  _atom_site_fract_z
  _atom_site_occupancy
  H   H1        1.0  0.7658274164018966  0.16792543316488376  0.12933607111677303  1.0000
  H   H2        1.0  0.23417258421440504  0.6679254331335175  0.3706639292542547  1.0000
  H   H3        1.0  0.2341725838288831  0.8320745667723835  0.8706639291563212  1.0000
  H   H4        1.0  0.7658274160163746  0.3320745668037499  0.6293360710188396  1.0000
  H   H5        1.0  0.594013805036317  0.1774440324854505  0.16793180654987624  1.0000
  H   H6        1.0  0.4059861947081647  0.6774440324540841  0.3320681934129141  1.0000
  H   H7        1.0  0.40598619432264277  0.8225559674518168  0.8320681933149806  1.0000
  H   H8        1.0  0.5940138054393487  0.32255596748318316  0.6679318064516528  1.0000
  H   H9        1.0  0.7066521882197919  0.24968054828865976  0.9448396297901537  1.0000
  H   H10       1.0  0.2933478124140197  0.7496805482572935  0.5551603703847171  1.0000
  H   H11       1.0  0.29334781201098786  0.7503194516486075  0.055160370482940424  1.0000
  H   H12       1.0  0.7066521877334938  0.2503194516799739  0.44483962947985  1.0000
  H   H13       1.0  0.550417053053  0.2943392312547723  0.8766356180795528  1.0000
  H   H14       1.0  0.4495829467089915  0.794339231223406  0.6233643816870807  1.0000
  H   H15       1.0  0.44958294709451346  0.7056607686824949  0.12336438178501423  1.0000
  H   H16       1.0  0.550417053438522  0.20566076871386135  0.3766356181774863  1.0000
  H   H17       1.0  0.3676136699987227  0.30330698587153027  0.9077244334841034  1.0000
  H   H18       1.0  0.6323863297632688  0.8033069858401639  0.5922755662825303  1.0000
  H   H19       1.0  0.6323863301487908  0.696693014065737  0.0922755663804638  1.0000
  H   H20       1.0  0.36761367038424464  0.19669301409710335  0.4077244335820367  1.0000
  H   H21       1.0  0.34149009603261293  0.2656521727277895  0.0027528790356236275  1.0000
  H   H22       1.0  0.6585099045004225  0.7656521726964232  0.4972471209268769  1.0000
  H   H23       1.0  0.6585099041149005  0.7343478287194523  0.9972471208289435  1.0000
  H   H24       1.0  0.34149009564709104  0.23434782724084413  0.5027528789376902  1.0000
  H   H25       1.0  0.33133225771474345  0.23194560744573772  0.07903939221229811  1.0000
  H   H26       1.0  0.6686677428182919  0.7319456074143713  0.42096060775020244  1.0000
  H   H27       1.0  0.6686677425160362  0.7680543924915296  0.920960608060796  1.0000
  H   H28       1.0  0.33133225732922156  0.268054392522896  0.5790393921143646  1.0000
  H   H29       1.0  0.4446854074723527  0.2234065043638237  0.1960447980158372  1.0000
  H   H30       1.0  0.555314592272129  0.7234065043324573  0.3039552019469532  1.0000
  H   H31       1.0  0.5553145927584271  0.7765934955734436  0.803955202257257  1.0000
  H   H32       1.0  0.44468540708683074  0.27659349560480995  0.6960447979179039  1.0000
  H   H33       1.0  0.133760999756539  0.24699787339694826  0.32474376750610345  1.0000
  H   H34       1.0  0.8662389999879425  0.7469978733655819  0.17525623245668695  1.0000
  H   H35       1.0  0.8662390004742407  0.7530021265403191  0.6752562327669908  1.0000
  H   H36       1.0  0.13376099937101713  0.25300212657168536  0.8247437674081701  1.0000
  H   H37       1.0  0.9384052848002943  0.2561514122448748  0.3120011749433168  1.0000
  H   H38       1.0  0.06159471573274107  0.7561514122135085  0.18799882501918372  1.0000
  H   H39       1.0  0.06159471534721916  0.7438485876923926  0.6879988249212503  1.0000
  H   H40       1.0  0.9384052844147724  0.24384858772375884  0.8120011748453833  1.0000
  H   H41       1.0  0.8404014955829849  0.26406545991076724  0.22047409301850493  1.0000
  H   H42       1.0  0.15959850416149676  0.764065459879401  0.2795259069442855  1.0000
  H   H43       1.0  0.15959850464779488  0.7359345400265  0.7795259072545893  1.0000
  H   H44       1.0  0.8404014959860167  0.2359345400578664  0.7204740929202814  1.0000
  H   H45       1.0  0.9390497488720744  0.26223838030768865  0.1359444852365529  1.0000
  H   H46       1.0  0.06095025166096102  0.7622383802763223  0.3640555147259476  1.0000
  H   H47       1.0  0.06095025127543912  0.7377616196295788  0.8640555146280142  1.0000
  H   H48       1.0  0.9390497484865524  0.237761619660945  0.6359444851386195  1.0000
  H   H49       1.0  0.3697084608779385  0.08344744008079259  0.28114927975235676  1.0000
  H   H50       1.0  0.6302915388665431  0.5834474400494263  0.21885072021043359  1.0000
  H   H51       1.0  0.6302915392695749  0.9165525598564747  0.7188507201122102  1.0000
  H   H52       1.0  0.36970846049241657  0.41655255988784107  0.7811492796544234  1.0000
  H   H53       1.0  0.29615658627951574  0.2687947344849416  0.31522821062561535  1.0000
  H   H54       1.0  0.7038434134649658  0.7687947344535753  0.18477178933717503  1.0000
  H   H55       1.0  0.703843413079444  0.7312052654523257  0.6847717892392416  1.0000
  H   H56       1.0  0.2961565867658139  0.231205265483692  0.8152282109359192  1.0000
  H   H57       1.0  0.3955707387241669  0.3480814083759893  0.27332770558257846  1.0000
  H   H58       1.0  0.6044292618088685  0.848081408344623  0.22667229437992203  1.0000
  H   H59       1.0  0.6044292615066129  0.651918591561278  0.7266722946905158  1.0000
  H   H60       1.0  0.395570738338645  0.1519185915926444  0.773327705484645  1.0000
  H   H61       1.0  0.07798958892556244  0.4535799016565081  0.08853640498841502  1.0000
  H   H62       1.0  0.9220104108189192  0.9535799016251416  0.4114635949743754  1.0000
  H   H63       1.0  0.9220104104333974  0.5464200982807593  0.9114635948764419  1.0000
  H   H64       1.0  0.07798958941186056  0.046420098312125624  0.5885364052987188  1.0000
  H   H65       1.0  0.21157290260844838  0.4315668363929296  0.07400007805902141  1.0000
  H   H66       1.0  0.788427097924587  0.9315668363615632  0.425999921903479  1.0000
  H   H67       1.0  0.788427097539065  0.5684331635443378  0.9259999218055457  1.0000
  H   H68       1.0  0.21157290230619272  0.06843316357570413  0.5740000783696151  1.0000
  H   H69       1.0  0.1815393525501954  0.5722634204958384  0.13218940357384162  1.0000
  H   H70       1.0  0.8184606471942861  0.07226342052720482  0.36781059638894875  1.0000
  H   H71       1.0  0.8184606476805842  0.4277365794414288  0.8678105966992525  1.0000
  H   H72       1.0  0.1815393529532272  0.9277365794100625  0.6321894034756183  1.0000
  H   H73       1.0  0.1690905141533896  0.9177876781526243  0.13039133862263713  1.0000
  H   H74       1.0  0.8309094863796458  0.41778767818399065  0.36960866133986336  1.0000
  H   H75       1.0  0.8309094859941238  0.08221232178464305  0.8696086612419299  1.0000
  H   H76       1.0  0.16909051385113397  0.5822123217532768  0.6303913389332308  1.0000
  H   H77       1.0  0.20227356013481396  0.05704161766945201  0.07256190299518593  1.0000
  H   H78       1.0  0.7977264403982215  0.5570416176380857  0.4274380969673146  1.0000
  H   H79       1.0  0.7977264400126995  0.9429583822678154  0.9274380968693812  1.0000
  H   H80       1.0  0.20227355983255832  0.44295838229918166  0.5725619033057796  1.0000
  H   H81       1.0  0.06912752702497355  0.051933164361925896  0.08827391504055743  1.0000
  H   H82       1.0  0.9308724728027743  0.5519331643305596  0.41172608533076005  1.0000
  H   H83       1.0  0.9308724732058061  0.9480668355753413  0.9117260852325367  1.0000
  H   H84       1.0  0.06912752742800538  0.4480668356067078  0.588273914942334  1.0000
  H   H85       1.0  0.8350524333397458  0.2409548516292947  0.03753606160851291  1.0000
  H   H86       1.0  0.16494756640473573  0.7409548515979284  0.4624639383542775  1.0000
  H   H87       1.0  0.1649475668910339  0.7590451483079725  0.9624639386645814  1.0000
  H   H88       1.0  0.835052432954224  0.25904514833933895  0.5375360615105795  1.0000
  H   H89       1.0  0.9462386154124041  0.25943448467053093  0.010074502482997977  1.0000
  H   H90       1.0  0.05376138441534377  0.7594344846391646  0.4899254978883195  1.0000
  H   H91       1.0  0.05376138481837559  0.7405655152667363  0.9899254977900962  1.0000
  H   H92       1.0  0.946238615815436  0.24056551529810272  0.5100745023847747  1.0000
  C   C1        1.0  0.6927511157385378  0.1891485462572532  0.10223138706113277  1.0000
  C   C2        1.0  0.30724888400594386  0.6891485462258868  0.3977686129016576  1.0000
  C   C3        1.0  0.30724888449224197  0.8108514536800141  0.8977686132119614  1.0000
  C   C4        1.0  0.692751115353016  0.31085145371138045  0.6022313869631993  1.0000
  C   C5        1.0  0.5949946271966856  0.19248072607059494  0.12384735714368454  1.0000
  C   C6        1.0  0.405005372547796  0.6924807260392286  0.3761526428191059  1.0000
  C   C7        1.0  0.40500537295082795  0.8075192738666724  0.8761526427208826  1.0000
  C   C8        1.0  0.5949946268111637  0.3075192738980387  0.6238473570457511  1.0000
  C   C9        1.0  0.5013416816043221  0.2172534266014941  0.08930086194426538  1.0000
  C   C10       1.0  0.4986583181401595  0.7172534265701277  0.410699138018525  1.0000
  C   C11       1.0  0.49865831854319126  0.7827465733357732  0.9106991379203015  1.0000
  C   C12       1.0  0.501341682007354  0.28274657336713954  0.589300861846042  1.0000
  C   C13       1.0  0.5100277056830693  0.23566905031761556  0.03168776403172172  1.0000
  C   C14       1.0  0.4899722948499661  0.7356690502862492  0.46831223593077875  1.0000
  C   C15       1.0  0.4899722944644442  0.7643309496196518  0.9683122358328454  1.0000
  C   C16       1.0  0.5100277052975474  0.26433094965101805  0.5316877639337884  1.0000
  C   C17       1.0  0.6145272320624213  0.23206318764288708  0.013871073650561361  1.0000
  C   C18       1.0  0.3854727676820603  0.7320631876115208  0.48612892631222904  1.0000
  C   C19       1.0  0.3854727680850922  0.7679368122943803  0.9861289262140058  1.0000
  C   C20       1.0  0.6145272316768994  0.26793681232574657  0.513871073552628  1.0000
  C   C21       1.0  0.6268268823039078  0.25339108691924983  0.9574970176498275  1.0000
  C   C22       1.0  0.3731731174580837  0.7533910883978578  0.542502982116806  1.0000
  C   C23       1.0  0.37317311784360563  0.7466089130180175  0.042502982214739436  1.0000
  C   C24       1.0  0.626826881900876  0.24660891304938382  0.4574970177480509  1.0000
  C   C25       1.0  0.5395414219236829  0.27838769853511075  0.9198550338778554  1.0000
  C   C26       1.0  0.4604585778383086  0.7783876985037445  0.5801449658887783  1.0000
  C   C27       1.0  0.4604585782238306  0.7216123014021566  0.08014496598671175  1.0000
  C   C28       1.0  0.5395414215206511  0.2216123014335229  0.41985503397607865  1.0000
  C   C29       1.0  0.43704768229990115  0.28194045087999897  0.9371898006369929  1.0000
  C   C30       1.0  0.5629523182506442  0.7819404508486326  0.5628101991293509  1.0000
  C   C31       1.0  0.5629523178476123  0.7180595490572684  0.06281019922757422  1.0000
  C   C32       1.0  0.4370476818968693  0.21805954908863473  0.4371898007352162  1.0000
  C   C33       1.0  0.4224444406959634  0.26096506418894877  0.9917071498892248  1.0000
  C   C34       1.0  0.577555559854582  0.7609650641575825  0.508292849877119  1.0000
  C   C35       1.0  0.5775555594515501  0.7390349357483185  0.008292849975342251  1.0000
  C   C36       1.0  0.42244444029293154  0.23903493577968488  0.49170714998744813  1.0000
  C   C37       1.0  0.3989607533755011  0.22544328015279044  0.10982101251761252  1.0000
  C   C38       1.0  0.6010392463689805  0.7254432801214241  0.3901789874451779  1.0000
  C   C39       1.0  0.6010392460667249  0.7745567197844768  0.8901789877557715  1.0000
  C   C40       1.0  0.39896075377853296  0.27455671981584323  0.6098210124193891  1.0000
  C   C41       1.0  0.37928022114096377  0.22758376098407462  0.1634642393672431  1.0000
  C   C42       1.0  0.6207197793920716  0.7275837624626826  0.33653576059525736  1.0000
  C   C43       1.0  0.6207197790065497  0.7724162389531927  0.8365357604973239  1.0000
  C   C44       1.0  0.37928022083870816  0.272416238984559  0.6634642396778367  1.0000
  C   C45       1.0  0.27414402591338805  0.23731599299381023  0.1791182624957978  1.0000
  C   C46       1.0  0.7258559738310936  0.737315992962444  0.3208817374669926  1.0000
  C   C47       1.0  0.7258559742341254  0.7626840069434572  0.8208817373687693  1.0000
  C   C48       1.0  0.27414402552786615  0.26268400697482347  0.6791182623978643  1.0000
  C   C49       1.0  0.16972387539435813  0.24524221709332597  0.14222221388136658  1.0000
  C   C50       1.0  0.8302761252219436  0.7452422185719341  0.35777778648966096  1.0000
  C   C51       1.0  0.8302761248364217  0.7547577828439415  0.8577777863917275  1.0000
  C   C52       1.0  0.1697238750088362  0.2547577828753077  0.6422222137834331  1.0000
  C   C53       1.0  0.0904052495681594  0.25107022756517644  0.1838981739750044  1.0000
  C   C54       1.0  0.9095947501763222  0.7510702275338101  0.31610182598778597  1.0000
  C   C55       1.0  0.909594750579354  0.7489297723720908  0.8161018258895626  1.0000
  C   C56       1.0  0.09040524918263747  0.24892977240345718  0.683898173877071  1.0000
  C   C57       1.0  0.14442235309047274  0.24832045092076335  0.23643318927502988  1.0000
  C   C58       1.0  0.8555776466540088  0.7483204508893969  0.26356681068776056  1.0000
  C   C59       1.0  0.855577646268487  0.751679549016504  0.7635668105898271  1.0000
  C   C60       1.0  0.14442235349350463  0.2516795490478703  0.7364331891768067  1.0000
  C   C61       1.0  0.09259370094188073  0.25071718950877003  0.28359030345279823  1.0000
  C   C62       1.0  0.9074062988026009  0.7507171894774036  0.2164096965099922  1.0000
  C   C63       1.0  0.907406298417079  0.7492828104284973  0.7164096964120588  1.0000
  C   C64       1.0  0.09259370134491256  0.24928281045986364  0.7835903033545749  1.0000
  C   C65       1.0  0.9819801844368324  0.2557004508381578  0.27616242939952335  1.0000
  C   C66       1.0  0.018019816096203064  0.7557004508067915  0.22383757056297718  1.0000
  C   C67       1.0  0.01801981571068114  0.7442995490991096  0.7238375704650437  1.0000
  C   C68       1.0  0.9819801840513105  0.24429954913047588  0.7761624293015899  1.0000
  C   C69       1.0  0.9268145784495895  0.259653607626646  0.22390424483807125  1.0000
  C   C70       1.0  0.07318542129489214  0.7596536075952796  0.2760957551247192  1.0000
  C   C71       1.0  0.07318542169792401  0.7403463923106214  0.776095755026496  1.0000
  C   C72       1.0  0.9268145780640675  0.24034639234198765  0.7239042447401378  1.0000
  C   C73       1.0  0.9806613356943281  0.257838690867421  0.1769951386833128  1.0000
  C   C74       1.0  0.019338664050153373  0.7578386908360546  0.32300486127947764  1.0000
  C   C75       1.0  0.019338664453185217  0.7421613090698463  0.8230048611812544  1.0000
  C   C76       1.0  0.9806613360973602  0.2421613091012126  0.6769951385850895  1.0000
  C   C77       1.0  0.3339231756306839  0.2352102219442347  0.27834166430435425  1.0000
  C   C78       1.0  0.6660768241137976  0.7352102219128683  0.22165833565843615  1.0000
  C   C79       1.0  0.6660768245168295  0.7647897779930326  0.7216583355602127  1.0000
  C   C80       1.0  0.33392317603371574  0.26478977802439896  0.7783416642061308  1.0000
  C   C81       1.0  0.16008223942184505  0.43887970888805744  0.10703472771093563  1.0000
  C   C82       1.0  0.8399177611111902  0.9388797088566911  0.39296527225156486  1.0000
  C   C83       1.0  0.8399177607256685  0.5611202910492099  0.8929652721536315  1.0000
  C   C84       1.0  0.16008223911958944  0.061120291080576226  0.6070347280215292  1.0000
  C   C85       1.0  0.15197257648050563  0.0550009401066159  0.10614694831972826  1.0000
  C   C86       1.0  0.8480274240525297  0.5550009400752496  0.39385305164277223  1.0000
  C   C87       1.0  0.8480274236670078  0.9449990598306514  0.8938530515448389  1.0000
  C   C88       1.0  0.15197257617825002  0.44499905986201777  0.6061469486303219  1.0000
  N   N1        1.0  0.7035752467250903  0.21022191669759027  0.04939494463861408  1.0000
  N   N2        1.0  0.29642475301939125  0.7102219166662239  0.45060505532417633  1.0000
  N   N3        1.0  0.2964247535056894  0.789778083239677  0.9506050556344801  1.0000
  N   N4        1.0  0.7035752471281221  0.28977808327104343  0.5493949445403907  1.0000
  N   N5        1.0  0.2541969953762202  0.2411414134972832  0.23146120732904213  1.0000
  N   N6        1.0  0.7458030043682614  0.7411414134659169  0.2685387926337483  1.0000
  N   N7        1.0  0.7458030039827395  0.758858586439984  0.7685387925358148  1.0000
  N   N8        1.0  0.25419699577925203  0.25885858647135046  0.7314612072308189  1.0000
  O   O1        1.0  0.9141519162394242  0.2632811822233821  0.04478248908070525  1.0000
  O   O2        1.0  0.08584808350505747  0.7632811821920158  0.4552175108820851  1.0000
  O   O3        1.0  0.08584808320280185  0.7367188177138853  0.9552175111926788  1.0000
  O   O4        1.0  0.914151916642456  0.23671881774525153  0.5447824889824819  1.0000
  I   I1        1.0  0.36074780931280664  0.7362747085710302  0.21900278995226327  1.0000
  I   I2        1.0  0.639252190431675  0.23627470860239644  0.28099721001052713  1.0000
  I   I3        1.0  0.639252190834707  0.26372529136623724  0.7809972099123039  1.0000
  I   I4        1.0  0.3607478089272847  0.7637252913348709  0.7190027898543297  1.0000
  I   I5        1.0  0.10849863331923044  0.24199386350922497  0.4489442675578425  1.0000
  I   I6        1.0  0.8915013664252512  0.7419938634778587  0.05105573240494797  1.0000
  I   I7        1.0  0.8915013668282831  0.7580061364280423  0.5510557323067246  1.0000
  I   I8        1.0  0.10849863372226229  0.2580061364594087  0.948944267459619  1.0000
