data_image0
_chemical_formula_structural       H22C18O10S2Br2
_chemical_formula_sum              "H22 C18 O10 S2 Br2"
_cell_length_a       7.790519044781906
_cell_length_b       8.553608541839507
_cell_length_c       9.323987686703914
_cell_angle_alpha    73.11142166611431
_cell_angle_beta     68.63767232156752
_cell_angle_gamma    83.70218770555324

_space_group_name_H-M_alt    "P 1"
_space_group_IT_number       1

loop_
  _space_group_symop_operation_xyz
  'x, y, z'

loop_
  _atom_site_type_symbol
  _atom_site_label
  _atom_site_symmetry_multiplicity
  _atom_site_fract_x
  _atom_site_fract_y
  _atom_site_fract_z
  _atom_site_occupancy
  H   H1        1.0  0.2607392757976592  0.5979852283800409  0.8734813354639712  1.0000
  H   H2        1.0  0.7392607245925051  0.4020147719548423  0.12651866429819755  1.0000
  H   H3        1.0  0.6259201440987543  0.09056563046884604  0.9765639137006705  1.0000
  H   H4        1.0  0.3740798562914098  0.9094343698660372  0.023436086061498395  1.0000
  H   H5        1.0  0.42857633534343836  0.05019800041307687  0.24962780055788997  1.0000
  H   H6        1.0  0.5714236651887129  0.949801998745517  0.7503721992046193  1.0000
  H   H7        1.0  0.7684665335388541  0.3771440250648193  0.5915165578365008  1.0000
  H   H8        1.0  0.23153346685131027  0.622855975270064  0.408483441925668  1.0000
  H   H9        1.0  0.5160450205068453  0.7881037705280032  0.48494493239879694  1.0000
  H   H10       1.0  0.483954979883319  0.21189622980688008  0.5150550673633718  1.0000
  H   H11       1.0  0.7940048265173217  0.06641665405796802  0.4605772453376514  1.0000
  H   H12       1.0  0.20599517353522612  0.9335833447702561  0.5394227556211351  1.0000
  H   H13       1.0  0.8401857884874171  0.8506615006528091  0.47720665823735925  1.0000
  H   H14       1.0  0.1598142119027472  0.14933849968207422  0.5227933415248096  1.0000
  H   H15       1.0  0.011591718701376149  0.001064075789517778  0.3396387996153175  1.0000
  H   H16       1.0  0.9884082816887881  0.9989359245453656  0.6603612001468513  1.0000
  H   H17       1.0  0.8583951874441325  0.7160815322919465  0.26459530039498147  1.0000
  H   H18       1.0  0.14160481246642861  0.28391846771256696  0.7354047005634644  1.0000
  H   H19       1.0  0.8577417490600452  0.8225749586482533  0.06702911916550044  1.0000
  H   H20       1.0  0.1422582501877435  0.17742504050936633  0.9329708805990052  1.0000
  H   H21       1.0  0.04563384456816963  0.8501920032025232  0.12750070695680216  1.0000
  H   H22       1.0  0.9543661546796189  0.14980799595509628  0.8724992928077036  1.0000
  C   C1        1.0  0.2838431573599933  0.3743405575534567  0.04446546004852064  1.0000
  C   C2        1.0  0.716156843172158  0.6256594416051374  0.9555345397139886  1.0000
  C   C3        1.0  0.38877762633977764  0.23118588030552495  0.07749502439924494  1.0000
  C   C4        1.0  0.6112223740503866  0.7688141200293586  0.9225049753629239  1.0000
  C   C5        1.0  0.6017148017586276  0.31279799225870986  0.8026072707754653  1.0000
  C   C6        1.0  0.39828519863153666  0.6872020080761736  0.19739272898670357  1.0000
  C   C7        1.0  0.3397239677788209  0.48657418166189403  0.8963706247308111  1.0000
  C   C8        1.0  0.6602760326113434  0.5134258186729892  0.10362937503135773  1.0000
  C   C9        1.0  0.4988086382390013  0.4587717303558107  0.7726239815173422  1.0000
  C   C10       1.0  0.5011913621511629  0.5412282699790725  0.2273760182448266  1.0000
  C   C11       1.0  0.5622046879096848  0.5765959597962451  0.6159216496844049  1.0000
  C   C12       1.0  0.43779531119611687  0.42340404053766384  0.38407835007976027  1.0000
  C   C13       1.0  0.5467692774903276  0.20225635218227556  0.9546872587280746  1.0000
  C   C14       1.0  0.453230721615474  0.7977436481516333  0.045312741036090745  1.0000
  C   C15       1.0  0.8634299904564811  0.9748297170739583  0.39717340942641927  1.0000
  C   C16       1.0  0.13657000993368312  0.025170283260925137  0.6028265903357496  1.0000
  C   C17       1.0  0.8975534288410452  0.8284081322263414  0.16670329102688208  1.0000
  C   C18       1.0  0.10244657154911904  0.17159186810854202  0.8332967087352868  1.0000
  O   O1        1.0  0.32923280702324204  0.1284146812515815  0.22502257872226628  1.0000
  O   O2        1.0  0.6707671922245466  0.871585317906038  0.7749774210422394  1.0000
  O   O3        1.0  0.7055176743832617  0.5530693028572954  0.5054863076822224  1.0000
  O   O4        1.0  0.2944823247225398  0.4469306974766135  0.49451369208194296  1.0000
  O   O5        1.0  0.7523915831936278  0.27814315077285096  0.6872155201367163  1.0000
  O   O6        1.0  0.24760841719653662  0.7218568495620323  0.3127844796254525  1.0000
  O   O7        1.0  0.460482357921075  0.7111900365640135  0.5966731039861044  1.0000
  O   O8        1.0  0.5395176411847264  0.2888099637698955  0.4033268957780609  1.0000
  O   O9        1.0  0.5727700356443904  0.934771130031243  0.3227201047506714  1.0000
  O   O10       1.0  0.4272299648877609  0.06522886912735071  0.6772798950118378  1.0000
  S   S1        1.0  0.7741997436454225  0.9944081578097417  0.2411615333839298  1.0000
  S   S2        1.0  0.2258002562651381  0.005591842194771606  0.7588384675745162  1.0000
  Br  Br1       1.0  0.06577195842060223  0.4105401475272887  0.20971968901872567  1.0000
  Br  Br2       1.0  0.934228041969562  0.5894598528075947  0.7902803107434432  1.0000
