data_image0
_chemical_formula_structural       H18C18O10Br2
_chemical_formula_sum              "H18 C18 O10 Br2"
_cell_length_a       4.235916399953952
_cell_length_b       10.037128184689402
_cell_length_c       12.558635028891565
_cell_angle_alpha    108.75480602550863
_cell_angle_beta     98.39972299877384
_cell_angle_gamma    97.90426757658669

_space_group_name_H-M_alt    "P 1"
_space_group_IT_number       1

loop_
  _space_group_symop_operation_xyz
  'x, y, z'

loop_
  _atom_site_type_symbol
  _atom_site_label
  _atom_site_symmetry_multiplicity
  _atom_site_fract_x
  _atom_site_fract_y
  _atom_site_fract_z
  _atom_site_occupancy
  H   H1        1.0  0.4699584611488714  0.3767017159340083  0.454143021890268  1.0000
  H   H2        1.0  0.5300415398709204  0.6232982839424582  0.5458569781110054  1.0000
  H   H3        1.0  0.7226287195306207  0.18258243169513338  0.8634507357880672  1.0000
  H   H4        1.0  0.2773712814891712  0.8174175681813332  0.13654926421320618  1.0000
  H   H5        1.0  0.0539696120394605  0.6438539435333931  0.7302633267049203  1.0000
  H   H6        1.0  0.9460303893073312  0.35614605734936844  0.26973667329735945  1.0000
  H   H7        1.0  0.9287687301701593  0.1680559257925822  0.5575958126446069  1.0000
  H   H8        1.0  0.0712312708496326  0.8319440740838843  0.44240418735666653  1.0000
  H   H9        1.0  0.6052165950648963  0.5372544191221852  0.9154550859464259  1.0000
  H   H10       1.0  0.3947834059548954  0.46274558075428135  0.08454491405484753  1.0000
  H   H11       1.0  0.3719245202845534  0.14321513125573257  0.003993820517201767  1.0000
  H   H12       1.0  0.6280754787012909  0.8567848696264596  0.9960061794850825  1.0000
  H   H13       1.0  0.0835743696185631  0.2551469711222334  0.04811034764413781  1.0000
  H   H14       1.0  0.9164256314012288  0.744853028754233  0.9518896523571355  1.0000
  H   H15       1.0  0.7226802996901897  0.8585418966841469  0.8063403776878985  1.0000
  H   H16       1.0  0.27731970132960226  0.14145810319231952  0.19365962231337505  1.0000
  H   H17       1.0  0.1551001578038315  0.9069448553314062  0.8603517304791277  1.0000
  H   H18       1.0  0.8448998432159605  0.09305514454506025  0.1396482695221458  1.0000
  C   C1        1.0  0.2973302319185511  0.21027013517031146  0.7071176330737474  1.0000
  C   C2        1.0  0.7026697667402932  0.7897298647055857  0.29288236692753056  1.0000
  C   C3        1.0  0.07768812122536235  0.24892376055592033  0.6356664818561174  1.0000
  C   C4        1.0  0.9223118801214294  0.7510762403268411  0.36433351814616227  1.0000
  C   C5        1.0  0.2416418155551002  0.4984871788070179  0.7639933736058383  1.0000
  C   C6        1.0  0.7583581854646917  0.5015128210694485  0.2360066263954351  1.0000
  C   C7        1.0  0.811415930576342  0.43507034337327777  0.5885804450935964  1.0000
  C   C8        1.0  0.18858406808250244  0.5649296565026194  0.41141955490768156  1.0000
  C   C9        1.0  0.04413626084008731  0.3931814650682384  0.6619268159396308  1.0000
  C   C10       1.0  0.9558637378187572  0.6068185348076587  0.33807318406164727  1.0000
  C   C11       1.0  0.4904770875256639  0.31457455191749883  0.8097310098114009  1.0000
  C   C12       1.0  0.5095229138211278  0.6854254489652626  0.19026899019087895  1.0000
  C   C13       1.0  0.4575789390328259  0.45770406235574124  0.8365662939936499  1.0000
  C   C14       1.0  0.5424210619869659  0.5422959375207252  0.16343370600762347  1.0000
  C   C15       1.0  0.12661261793747114  0.1453096151493108  0.023075265612204226  1.0000
  C   C16       1.0  0.8733873830823208  0.8546903847271557  0.9769247343890692  1.0000
  C   C17       1.0  0.914789539983454  0.9154985531792735  0.8829068255922312  1.0000
  C   C18       1.0  0.08521046103633773  0.08450144669719287  0.1170931744090422  1.0000
  O   O1        1.0  0.6306705120647584  0.33325334281700014  0.4960287986071741  1.0000
  O   O2        1.0  0.36932948659408593  0.6667466570588971  0.5039712013941039  1.0000
  O   O3        1.0  0.7069202174678832  0.28584017699843955  0.8838461615611024  1.0000
  O   O4        1.0  0.29307978355190867  0.714159822878027  0.11615383844017092  1.0000
  O   O5        1.0  0.2254451689792528  0.6387214418769285  0.7926254483617201  1.0000
  O   O6        1.0  0.7745548320405392  0.361278557999538  0.20737455163955335  1.0000
  O   O7        1.0  0.7824787025849188  0.5656468535916636  0.6127405012887626  1.0000
  O   O8        1.0  0.21752129607392565  0.43435314628423355  0.38725949871251536  1.0000
  O   O9        1.0  0.8872440248795384  0.06377933554377434  0.9198546676943532  1.0000
  O   O10       1.0  0.11275597614025352  0.936220664332692  0.08014533230692023  1.0000
  Br  Br1       1.0  0.35118603371346596  0.016273683625938385  0.6671957186509825  1.0000
  Br  Br2       1.0  0.6488139649453785  0.9837263162499588  0.33280428135029555  1.0000
