data_image0
_chemical_formula_structural       H36C36O18Br4
_chemical_formula_sum              "H36 C36 O18 Br4"
_cell_length_a       4.899541335677076
_cell_length_b       13.998031677128195
_cell_length_c       14.610566989713757
_cell_angle_alpha    97.38985711551877
_cell_angle_beta     91.43342278267443
_cell_angle_gamma    98.51014771133889

_space_group_name_H-M_alt    "P 1"
_space_group_IT_number       1

loop_
  _space_group_symop_operation_xyz
  'x, y, z'

loop_
  _atom_site_type_symbol
  _atom_site_label
  _atom_site_symmetry_multiplicity
  _atom_site_fract_x
  _atom_site_fract_y
  _atom_site_fract_z
  _atom_site_occupancy
  H   H1        1.0  0.13589840626708255  0.06676537315692987  0.7024322713693183  1.0000
  H   H2        1.0  0.8641015936248647  0.9332346266593878  0.29756772905460893  1.0000
  H   H3        1.0  0.24739047366746117  0.7167220911359791  0.6528785323289076  1.0000
  H   H4        1.0  0.7526095261327364  0.2832779085838709  0.34712146740415456  1.0000
  H   H5        1.0  0.6034124822940472  0.7589660257650451  0.7604147307527095  1.0000
  H   H6        1.0  0.39658751750615034  0.241033973954805  0.23958526898035273  1.0000
  H   H7        1.0  0.7282980357251756  0.7973295061029312  0.5218259498596898  1.0000
  H   H8        1.0  0.27170196407502195  0.20267049361691897  0.4781740498733724  1.0000
  H   H9        1.0  0.6096101434340526  0.06985799059083146  0.5439186935233317  1.0000
  H   H10       1.0  0.390389856366145  0.9301420091290187  0.4560813062097306  1.0000
  H   H11       1.0  0.34949381110856226  0.3245931124244626  0.6180313244976428  1.0000
  H   H12       1.0  0.6505061886916353  0.6754068872953876  0.38196867523541944  1.0000
  H   H13       1.0  0.2607293147790494  0.624773149946373  0.8301508563876215  1.0000
  H   H14       1.0  0.7392706851128978  0.3752268498699446  0.1698491440363057  1.0000
  H   H15       1.0  0.7793235182320385  0.6337552600769563  0.6630618867201596  1.0000
  H   H16       1.0  0.22067648156815906  0.3662447396428937  0.33693811301290266  1.0000
  H   H17       1.0  0.9041294657663175  0.532761597866706  0.8900180436594084  1.0000
  H   H18       1.0  0.09587053434343168  0.46723840257562804  0.10998195607469258  1.0000
  H   H19       1.0  0.8867634604238056  0.4175756006890312  0.4863028499002311  1.0000
  H   H20       1.0  0.113236539376392  0.5824243990308188  0.5136971498328311  1.0000
  H   H21       1.0  0.6792668853089865  0.8353077903155669  0.005759202731666748  1.0000
  H   H22       1.0  0.3207331144912111  0.1646922094042831  0.9942407970013954  1.0000
  H   H23       1.0  0.9388939567561033  0.8208433705444773  0.08288387473679994  1.0000
  H   H24       1.0  0.06110604304409415  0.1791566291753727  0.9171161249962623  1.0000
  H   H25       1.0  0.59116784553041  0.5723632491078119  0.04741805105972175  1.0000
  H   H26       1.0  0.40883215426978764  0.4276367506120382  0.9525819486733405  1.0000
  H   H27       1.0  0.557421332410762  0.6879499468147342  0.11141163243113533  1.0000
  H   H28       1.0  0.44257866738943547  0.3120500529051157  0.8885883673019269  1.0000
  H   H29       1.0  0.37342789730600157  0.6492454067593484  0.0046061108570745  1.0000
  H   H30       1.0  0.6265721028037475  0.3507545936829855  0.9953938888770264  1.0000
  H   H31       1.0  0.136561115779291  0.9287055798529552  0.968549365359403  1.0000
  H   H32       1.0  0.8634388841126562  0.07129441996336247  0.03145063506452433  1.0000
  H   H33       1.0  0.27817189188078584  0.8185707136917032  0.9490104363622546  1.0000
  H   H34       1.0  0.7218281080111614  0.1814292861246145  0.05098956406167264  1.0000
  H   H35       1.0  0.007481885594487273  0.8387778203661284  0.8750336646462922  1.0000
  H   H36       1.0  0.9925181142057105  0.16122217935372174  0.12496633508676999  1.0000
  C   C1        1.0  0.38935374347646734  0.8571569625051331  0.7315384023341778  1.0000
  C   C2        1.0  0.6106462567250315  0.1428430380336685  0.2684615980907881  1.0000
  C   C3        1.0  0.15966565202925337  0.9900633045960971  0.6926796986065702  1.0000
  C   C4        1.0  0.8403343481722455  0.009936695942704313  0.30732030181839576  1.0000
  C   C5        1.0  0.7809397231501175  0.9597449197664231  0.5709311321475  1.0000
  C   C6        1.0  0.2190602767418297  0.04025508004989466  0.4290688682764272  1.0000
  C   C7        1.0  0.9891357714687017  0.9257672237757666  0.6253456009564313  1.0000
  C   C8        1.0  0.010864228423245506  0.0742327760405511  0.3746543994674959  1.0000
  C   C9        1.0  0.22170713749212068  0.7930940392519833  0.6645337558376954  1.0000
  C   C10       1.0  0.7782928626176284  0.2069059611903505  0.3354662438964056  1.0000
  C   C11       1.0  0.35408326129074585  0.9565884508069795  0.7450890672256958  1.0000
  C   C12       1.0  0.6459167388190034  0.04341154963535447  0.2549109325084052  1.0000
  C   C13       1.0  0.021469172442456972  0.8256894684009598  0.6119758881637585  1.0000
  C   C14       1.0  0.978530827667292  0.17431053204137398  0.38802411157034233  1.0000
  C   C15       1.0  0.7206620920373344  0.48154258041686343  0.5891028024060551  1.0000
  C   C16       1.0  0.2793379078546128  0.5184574193994543  0.4108971980178721  1.0000
  C   C17       1.0  0.5107887343497614  0.47661180200854114  0.6574080267841547  1.0000
  C   C18       1.0  0.48921126554218586  0.5233881978077766  0.3425919736397726  1.0000
  C   C19       1.0  0.4840488624305185  0.5611057430738077  0.7195154567979963  1.0000
  C   C20       1.0  0.5159511377709803  0.4388942574649937  0.2804845436269696  1.0000
  C   C21       1.0  0.10534281723087889  0.47180908882207495  0.792156798749695  1.0000
  C   C22       1.0  0.8946571826610684  0.5281909109942428  0.2078432016742322  1.0000
  C   C23       1.0  0.3314479196631899  0.3898429969941286  0.6650585016877143  1.0000
  C   C24       1.0  0.6685520801370077  0.6101570027257216  0.334941498045348  1.0000
  C   C25       1.0  0.134808409667807  0.3868931928005259  0.731117787199882  1.0000
  C   C26       1.0  0.8651915901323904  0.6131068069193241  0.2688822125331801  1.0000
  C   C27       1.0  0.2825078437625961  0.5586116031610309  0.7847071492852264  1.0000
  C   C28       1.0  0.7174921560376015  0.4413883965588193  0.21529285044783575  1.0000
  C   C29       1.0  0.800442848529559  0.6955981455939266  0.9905436853517684  1.0000
  C   C30       1.0  0.19955715127063858  0.3044018541259234  0.009456314381293702  1.0000
  C   C31       1.0  0.8732124432263139  0.804447180918993  0.008872862693544079  1.0000
  C   C32       1.0  0.12678755688343515  0.19555281952334064  0.9911271370405569  1.0000
  C   C33       1.0  0.5702551323741082  0.6482582231419536  0.04230375919915846  1.0000
  C   C34       1.0  0.429744867517839  0.3517417766743639  0.9576962412247687  1.0000
  C   C35       1.0  0.08604264173585922  0.8499185704275855  0.9470462807511996  1.0000
  C   C36       1.0  0.9139573580643384  0.1500814292922647  0.05295371898186267  1.0000
  O   O1        1.0  0.5820995213546792  0.8276190553956083  0.7837692257366761  1.0000
  O   O2        1.0  0.417900478537268  0.17238094442070934  0.21623077468725124  1.0000
  O   O3        1.0  0.861191549429239  0.759979935737381  0.550147372200813  1.0000
  O   O4        1.0  0.13880845037095843  0.24002006398246892  0.44985262753224914  1.0000
  O   O5        1.0  0.7681035485849278  0.05368314770405351  0.5843652232201186  1.0000
  O   O6        1.0  0.23189645161657108  0.946316852834748  0.4156347772048473  1.0000
  O   O7        1.0  0.6210467668179673  0.9007478581535389  0.5124742521997062  1.0000
  O   O8        1.0  0.3789532330739799  0.0992521416627788  0.487525748224221  1.0000
  O   O9        1.0  0.6540891834483518  0.6464931965889306  0.7163268723361341  1.0000
  O   O10       1.0  0.3459108163518458  0.3535068031309195  0.2836731273969281  1.0000
  O   O11       1.0  0.9119307004847333  0.4661552992781284  0.8552834243404506  1.0000
  O   O12       1.0  0.08806929931546424  0.5338447004417217  0.1447165753926118  1.0000
  O   O13       1.0  0.8872648032125472  0.5597569423599709  0.5865929221153843  1.0000
  O   O14       1.0  0.11273519658765042  0.44024305735987923  0.413407077617678  1.0000
  O   O15       1.0  0.7298424360772966  0.40292041352423386  0.5297339633126129  1.0000
  O   O16       1.0  0.2701575640324526  0.5970795869181  0.470266036421488  1.0000
  O   O17       1.0  0.9278579756518555  0.6472334190191396  0.9338442819486289  1.0000
  O   O18       1.0  0.07214202414834207  0.35276658070071054  0.06615571778443341  1.0000
  Br  Br1       1.0  0.5815990006120185  0.043690891621729525  0.8362957463673243  1.0000
  Br  Br2       1.0  0.41840099949773063  0.9563091088206044  0.1637042533667767  1.0000
  Br  Br3       1.0  0.9033428082990882  0.2674442483885255  0.7416600929478545  1.0000
  Br  Br4       1.0  0.09665719190241075  0.732555752150276  0.25833990747711144  1.0000
