data_image0
_chemical_formula_structural       H64C72O48Br16
_chemical_formula_sum              "H64 C72 O48 Br16"
_cell_length_a       17.181121918058153
_cell_length_b       3.902400644760123
_cell_length_c       35.2899942752108
_cell_angle_alpha    90.0
_cell_angle_beta     99.08535010880243
_cell_angle_gamma    90.0

_space_group_name_H-M_alt    "P 1"
_space_group_IT_number       1

loop_
  _space_group_symop_operation_xyz
  'x, y, z'

loop_
  _atom_site_type_symbol
  _atom_site_label
  _atom_site_symmetry_multiplicity
  _atom_site_fract_x
  _atom_site_fract_y
  _atom_site_fract_z
  _atom_site_occupancy
  H   H1        1.0  0.9983665911316402  0.027996125960745792  0.42161027788936  1.0000
  H   H2        1.0  0.5016334083351353  0.027996125960745792  0.5783897219086573  1.0000
  H   H3        1.0  0.4983665913448085  0.5279961253508489  0.9216102780447458  1.0000
  H   H4        1.0  0.0016334082544849908  0.5279961253508489  0.0783897219008034  1.0000
  H   H5        1.0  0.001633408447483725  0.9720038753819858  0.5783897221259064  1.0000
  H   H6        1.0  0.4983665912439887  0.9720038753819858  0.42161027810660917  1.0000
  H   H7        1.0  0.5016334088164921  0.4720038734293574  0.07838972197096182  1.0000
  H   H8        1.0  0.998366591324639  0.4720038734293574  0.9216102781144632  1.0000
  H   H9        1.0  0.2578135326903184  0.04891361686717157  0.3374851091882849  1.0000
  H   H10       1.0  0.242186467001154  0.04891361686717157  0.6625148910442308  1.0000
  H   H11       1.0  0.7578135327709686  0.5489136162572749  0.8374851091961388  1.0000
  H   H12       1.0  0.7421864673701624  0.5489136162572749  0.16251489088928608  1.0000
  H   H13       1.0  0.7421864668888055  0.9510863844755599  0.6625148908269816  1.0000
  H   H14       1.0  0.7578135325779699  0.9510863844755599  0.33748510897103573  1.0000
  H   H15       1.0  0.24218646739033184  0.45108638508545684  0.16251489081956896  1.0000
  H   H16       1.0  0.2578135327911382  0.45108638508545684  0.8374851091264217  1.0000
  H   H17       1.0  0.1924468355702325  0.6006650068458271  0.23786130358649887  1.0000
  H   H18       1.0  0.3075531640290609  0.6006650068458271  0.7621386963590504  1.0000
  H   H19       1.0  0.6924468356508827  0.10066500745572401  0.7378613035943528  1.0000
  H   H20       1.0  0.8075531643980692  0.10066500745572401  0.2621386962041058  1.0000
  H   H21       1.0  0.8075531640088913  0.3993349944969044  0.7621386964287675  1.0000
  H   H22       1.0  0.692446835550063  0.3993349944969044  0.23786130365621602  1.0000
  H   H23       1.0  0.30755316451041775  0.8993349938870077  0.26213869642135496  1.0000
  H   H24       1.0  0.1924468357632313  0.8993349938870077  0.737861303811602  1.0000
  H   H25       1.0  0.030886055121602175  0.5564193268867892  0.28267458411622276  1.0000
  H   H26       1.0  0.4691139450598679  0.5564193268867892  0.7173254158297679  1.0000
  H   H27       1.0  0.5308860552022524  0.056419327496685996  0.7826745841240765  1.0000
  H   H28       1.0  0.9691139449388785  0.056419327496685996  0.21732541596134827  1.0000
  H   H29       1.0  0.9691139450396984  0.4435806718934172  0.717325415899485  1.0000
  H   H30       1.0  0.5308860551014326  0.4435806718934172  0.2826745841859398  1.0000
  H   H31       1.0  0.4691139449590481  0.9435806738460455  0.21732541589163115  1.0000
  H   H32       1.0  0.03088605522242198  0.9435806738460455  0.7826745840543595  1.0000
  H   H33       1.0  0.05287740603555813  0.35575816436585744  0.4920387434145728  1.0000
  H   H34       1.0  0.4471225941459119  0.35575816436585744  0.5079612565314178  1.0000
  H   H35       1.0  0.5528774055340318  0.8557581637559606  0.9920387434219854  1.0000
  H   H36       1.0  0.9471225939327435  0.8557581637559606  0.007961256376031872  1.0000
  H   H37       1.0  0.9471225941257423  0.6442418369768742  0.507961256601135  1.0000
  H   H38       1.0  0.5528774060153886  0.6442418369768742  0.49203874348428994  1.0000
  H   H39       1.0  0.44712259404509214  0.14424183758677095  0.007961256593281072  1.0000
  H   H40       1.0  0.0528774056463803  0.14424183758677095  0.9920387436392346  1.0000
  H   H41       1.0  0.20228499081000503  0.8059938628349984  0.5565338349503436  1.0000
  H   H42       1.0  0.297715009371465  0.8059938628349984  0.44346616499564706  1.0000
  H   H43       1.0  0.7022849906890157  0.30599386344489515  0.05653383508192395  1.0000
  H   H44       1.0  0.7977150094521153  0.30599386344489515  0.943466165003501  1.0000
  H   H45       1.0  0.7977150093512956  0.19400613594520805  0.4434661650653642  1.0000
  H   H46       1.0  0.7022849907898354  0.19400613594520805  0.5565338350200606  1.0000
  H   H47       1.0  0.29771500947228474  0.6940061353353112  0.9434661649337837  1.0000
  H   H48       1.0  0.20228499070918526  0.6940061353353112  0.05653383501220683  1.0000
  H   H49       1.0  0.18066842492005059  0.4404987177080752  0.5822849102367179  1.0000
  H   H50       1.0  0.31933157535359846  0.4404987177080752  0.4177150899962391  1.0000
  H   H51       1.0  0.6806684247068823  0.9404987170981783  0.08228491008133197  1.0000
  H   H52       1.0  0.819331574852072  0.9404987170981783  0.9177150900036516  1.0000
  H   H53       1.0  0.8193315752412499  0.5595012810721313  0.41771508977898986  1.0000
  H   H54       1.0  0.6806684248077021  0.5595012810721313  0.5822849100194687  1.0000
  H   H55       1.0  0.3193315748722416  0.059501281682028055  0.9177150899339345  1.0000
  H   H56       1.0  0.18066842472705183  0.059501281682028055  0.08228491001161485  1.0000
  H   H57       1.0  0.13814471014820293  0.8435386880176023  0.5917814172239978  1.0000
  H   H58       1.0  0.3618552901254461  0.8435386880176023  0.40821858300895913  1.0000
  H   H59       1.0  0.6381447099350347  0.34353868606497395  0.09178141706861187  1.0000
  H   H60       1.0  0.8618552902060963  0.34353868606497395  0.908218583016813  1.0000
  H   H61       1.0  0.8618552900130976  0.15646131332512922  0.40821858279170997  1.0000
  H   H62       1.0  0.6381447100358544  0.15646131332512922  0.5917814170067486  1.0000
  H   H63       1.0  0.3618552902262659  0.6564613127152324  0.9082185829470959  1.0000
  H   H64       1.0  0.13814470995520417  0.6564613127152324  0.09178141699889475  1.0000
  C   C1        1.0  0.031010191456504722  0.8644855839007196  0.373388265121619  1.0000
  C   C2        1.0  0.4689898081427887  0.8644855839007196  0.6266117348239303  1.0000
  C   C3        1.0  0.531010191537155  0.3644855845106164  0.8733882651294729  1.0000
  C   C4        1.0  0.9689898086039759  0.3644855845106164  0.12661173495595202  1.0000
  C   C5        1.0  0.9689898087047958  0.13551441487948676  0.6266117348940887  1.0000
  C   C6        1.0  0.5310101914363351  0.13551441487948676  0.3733882651913361  1.0000
  C   C7        1.0  0.4689898086241456  0.63551441426959  0.1266117348862349  1.0000
  C   C8        1.0  0.031010191557324512  0.63551441426959  0.8733882650597558  1.0000
  C   C9        1.0  0.13021020613073508  0.8043683941613712  0.31697574955956775  1.0000
  C   C10       1.0  0.3697897934685584  0.8043683941613712  0.6830242503859816  1.0000
  C   C11       1.0  0.6302102062113853  0.304368394771268  0.8169757495674217  1.0000
  C   C12       1.0  0.8697897939297456  0.304368394771268  0.18302425051800325  1.0000
  C   C13       1.0  0.8697897934483888  0.1956316046188352  0.6830242504556987  1.0000
  C   C14       1.0  0.6302102061105656  0.1956316046188352  0.3169757496292849  1.0000
  C   C15       1.0  0.3697897939499152  0.6956316065714636  0.18302425044828613  1.0000
  C   C16       1.0  0.1302102062315549  0.6956316065714636  0.8169757494977046  1.0000
  C   C17       1.0  0.052344223187881365  0.6789347637991846  0.3100078107278678  1.0000
  C   C18       1.0  0.4476557769935887  0.6789347637991846  0.6899921892181229  1.0000
  C   C19       1.0  0.5523442232685316  0.1789347644090814  0.8100078107357217  1.0000
  C   C20       1.0  0.9476557768725994  0.1789347644090814  0.1899921893497032  1.0000
  C   C21       1.0  0.9476557769734191  0.321065237543547  0.6899921892878399  1.0000
  C   C22       1.0  0.5523442231677118  0.321065237543547  0.3100078107975849  1.0000
  C   C23       1.0  0.4476557768927689  0.8210652369336502  0.18999218927998607  1.0000
  C   C24       1.0  0.0523442232887012  0.8210652369336502  0.8100078106660047  1.0000
  C   C25       1.0  0.10880102982131754  0.9878420082715418  0.3803474600533292  1.0000
  C   C26       1.0  0.39119897045233143  0.9878420082715418  0.6196525401796277  1.0000
  C   C27       1.0  0.6088010293197912  0.48784200888143864  0.8803474600607418  1.0000
  C   C28       1.0  0.8911989702391632  0.48784200888143864  0.11965254002424178  1.0000
  C   C29       1.0  0.8911989703399829  0.012157990508664548  0.6196525399623786  1.0000
  C   C30       1.0  0.608801029708969  0.012157990508664548  0.38034745983608004  1.0000
  C   C31       1.0  0.39119897025933276  0.5121579898987677  0.11965253995452466  1.0000
  C   C32       1.0  0.10880102933996069  0.5121579898987677  0.8803474599910246  1.0000
  C   C33       1.0  0.1815143594555213  0.7703571118553848  0.2882000477187334  1.0000
  C   C34       1.0  0.31848564072594876  0.7703571118553848  0.7117999522272572  1.0000
  C   C35       1.0  0.6815143595361716  0.2703571124652816  0.7882000477265872  1.0000
  C   C36       1.0  0.8184856406049594  0.2703571124652816  0.2117999523588376  1.0000
  C   C37       1.0  0.8184856407057792  0.22964288948734685  0.7117999522969743  1.0000
  C   C38       1.0  0.6815143594353518  0.22964288948734685  0.28820004778845054  1.0000
  C   C39       1.0  0.31848564062512896  0.72964288887745  0.2117999522891205  1.0000
  C   C40       1.0  0.1815143595563411  0.72964288887745  0.7882000476568701  1.0000
  C   C41       1.0  0.0038445064857563238  0.7090586543735278  0.3373803140663769  1.0000
  C   C42       1.0  0.4961554937878927  0.7090586543735278  0.6626196861665801  1.0000
  C   C43       1.0  0.5038445059842299  0.2090586524208993  0.8373803140737895  1.0000
  C   C44       1.0  0.9961554935747244  0.2090586524208993  0.1626196860111941  1.0000
  C   C45       1.0  0.9961554936755441  0.2909413469692039  0.6626196859493308  1.0000
  C   C46       1.0  0.5038445063734078  0.2909413469692039  0.3373803138491277  1.0000
  C   C47       1.0  0.4961554935948939  0.790941346359307  0.16261968594147697  1.0000
  C   C48       1.0  0.003844506004399526  0.790941346359307  0.8373803140040724  1.0000
  C   C49       1.0  0.15892488822248627  0.963890190273176  0.3527021271771993  1.0000
  C   C50       1.0  0.3410751119589838  0.963890190273176  0.6472978727687914  1.0000
  C   C51       1.0  0.6589248877209599  0.4638901908830728  0.8527021271846118  1.0000
  C   C52       1.0  0.8410751117458155  0.4638901908830728  0.14729787261340538  1.0000
  C   C53       1.0  0.8410751119388141  0.03610980850703039  0.6472978728385085  1.0000
  C   C54       1.0  0.6589248882023168  0.03610980850703039  0.3527021272469164  1.0000
  C   C55       1.0  0.34107511185816397  0.5361098104596588  0.1472978728306546  1.0000
  C   C56       1.0  0.15892488774112948  0.5361098104596588  0.8527021271148948  1.0000
  C   C57       1.0  0.08769308952513745  0.6068284795872271  0.5389575120324201  1.0000
  C   C58       1.0  0.4123069107485116  0.6068284795872271  0.4610424882005368  1.0000
  C   C59       1.0  0.5876930893119692  0.1068284801971238  0.0389575118770342  1.0000
  C   C60       1.0  0.9123069102469852  0.1068284801971238  0.9610424882079496  1.0000
  C   C61       1.0  0.9123069106361631  0.39317152175550457  0.4610424879832877  1.0000
  C   C62       1.0  0.587693089412789  0.39317152175550457  0.538957511815171  1.0000
  C   C63       1.0  0.41230691026715477  0.8931715211456077  0.9610424881382322  1.0000
  C   C64       1.0  0.0876930893321387  0.8931715211456077  0.03895751180731709  1.0000
  C   C65       1.0  0.1556490057970907  0.6802400551989386  0.5694651311923482  1.0000
  C   C66       1.0  0.3443509943843794  0.6802400551989386  0.43053486875364255  1.0000
  C   C67       1.0  0.6556490056761013  0.18024005580883543  0.06946513132392845  1.0000
  C   C68       1.0  0.8443509944650297  0.18024005580883543  0.9305348687614965  1.0000
  C   C69       1.0  0.8443509943642099  0.3197599435812678  0.4305348688233597  1.0000
  C   C70       1.0  0.6556490057769211  0.3197599435812678  0.5694651312620652  1.0000
  C   C71       1.0  0.3443509944851991  0.819759942971371  0.9305348686917791  1.0000
  C   C72       1.0  0.15564900569627088  0.819759942971371  0.06946513125421133  1.0000
  O   O1        1.0  0.2503803116967676  0.8986934349524165  0.2932522969518847  1.0000
  O   O2        1.0  0.24961968848470245  0.8986934349524165  0.7067477029941059  1.0000
  O   O3        1.0  0.7503803111952413  0.3986934355623133  0.7932522969592973  1.0000
  O   O4        1.0  0.7496196882715341  0.3986934355623133  0.20674770283871996  1.0000
  O   O5        1.0  0.7496196883723539  0.10130656382778992  0.7067477027768567  1.0000
  O   O6        1.0  0.750380311676598  0.10130656382778992  0.2932522970216019  1.0000
  O   O7        1.0  0.2496196882917037  0.6013065632178931  0.20674770276900284  1.0000
  O   O8        1.0  0.25038031130758975  0.6013065632178931  0.7932522971765464  1.0000
  O   O9        1.0  0.9811662093041819  0.8789759156599478  0.39874751615824905  1.0000
  O   O10       1.0  0.5188337908369492  0.8789759156599478  0.6012524839271759  1.0000
  O   O11       1.0  0.4811662088429945  0.3789759162698446  0.8987475160262273  1.0000
  O   O12       1.0  0.018833790756298954  0.3789759162698446  0.10125248391932201  1.0000
  O   O13       1.0  0.018833790857118754  0.12102408312025863  0.6012524838574588  1.0000
  O   O14       1.0  0.48116620932435133  0.12102408312025863  0.3987475160885319  1.0000
  O   O15       1.0  0.5188337907361295  0.6210240825103618  0.10125248398903913  1.0000
  O   O16       1.0  0.9811662088228249  0.6210240825103618  0.8987475160959445  1.0000
  O   O17       1.0  0.23245728364822815  0.08997567957853365  0.36090394301207646  1.0000
  O   O18       1.0  0.2675427159510653  0.08997567957853365  0.6390960569334729  1.0000
  O   O19       1.0  0.7324572837288784  0.5899756789686368  0.8609039430199303  1.0000
  O   O20       1.0  0.7675427164122525  0.5899756789686368  0.13909605706549458  1.0000
  O   O21       1.0  0.7675427159308957  0.910024321764198  0.63909605700319  1.0000
  O   O22       1.0  0.7324572836280585  0.910024321764198  0.3609039430817936  1.0000
  O   O23       1.0  0.2675427164324221  0.41002431981156956  0.13909605699577746  1.0000
  O   O24       1.0  0.23245728374904795  0.41002431981156956  0.8609039429502132  1.0000
  O   O25       1.0  0.15323980911572713  0.5986591979316374  0.25688157175578447  1.0000
  O   O26       1.0  0.3467601910657429  0.5986591979316374  0.7431184281902061  1.0000
  O   O27       1.0  0.6532398091963774  0.09865919597900898  0.7568815717636383  1.0000
  O   O28       1.0  0.8467601909447536  0.09865919597900898  0.24311842832178646  1.0000
  O   O29       1.0  0.8467601910455734  0.40134080341109424  0.7431184282599232  1.0000
  O   O30       1.0  0.6532398090955576  0.40134080341109424  0.25688157182550164  1.0000
  O   O31       1.0  0.3467601909649231  0.9013408028011974  0.24311842825206936  1.0000
  O   O32       1.0  0.15323980863437037  0.9013408028011974  0.75688157169348  1.0000
  O   O33       1.0  0.020381180640515178  0.7327005605739791  0.5387784388178464  1.0000
  O   O34       1.0  0.479618819540955  0.7327005605739791  0.4612215611281445  1.0000
  O   O35       1.0  0.5203811805195259  0.23270056118387594  0.0387784389494266  1.0000
  O   O36       1.0  0.9796188196216052  0.23270056118387594  0.9612215611359982  1.0000
  O   O37       1.0  0.9796188195207853  0.26729944076875245  0.46122156119786156  1.0000
  O   O38       1.0  0.5203811806203457  0.26729944076875245  0.5387784388875633  1.0000
  O   O39       1.0  0.4796188196417748  0.7672994401588557  0.9612215610662812  1.0000
  O   O40       1.0  0.02038118053969533  0.7672994401588557  0.03877843887970948  1.0000
  O   O41       1.0  0.10304843697357384  0.40010653239731003  0.5115503920168766  1.0000
  O   O42       1.0  0.39695156262571957  0.40010653239731003  0.4884496079286727  1.0000
  O   O43       1.0  0.6030484373425822  0.9001065317874133  0.01155039186193192  1.0000
  O   O44       1.0  0.8969515627063699  0.9001065317874133  0.9884496079365268  1.0000
  O   O45       1.0  0.8969515626055501  0.5998934689454215  0.48844960799838993  1.0000
  O   O46       1.0  0.603048437535581  0.5998934689454215  0.511550392087035  1.0000
  O   O47       1.0  0.39695156281871835  0.09989346955531833  0.9884496081537759  1.0000
  O   O48       1.0  0.10304843745493066  0.09989346955531833  0.01155039207918112  1.0000
  Br  Br1       1.0  0.8999225193309696  0.5332573252810939  0.32787144364636994  1.0000
  Br  Br2       1.0  0.6000774807179826  0.5332573252810939  0.6721285561520886  1.0000
  Br  Br3       1.0  0.39992251954413777  0.033257325890990785  0.8278714438017559  1.0000
  Br  Br4       1.0  0.1000774806373323  0.033257325890990785  0.1721285561442347  1.0000
  Br  Br5       1.0  0.10007748083033108  0.4667426760616376  0.6721285563693379  1.0000
  Br  Br6       1.0  0.39992251944331797  0.4667426760616376  0.32787144386361916  1.0000
  Br  Br7       1.0  0.6000774806171628  0.9667426754517409  0.17212855621395184  1.0000
  Br  Br8       1.0  0.8999225195239683  0.9667426754517409  0.827871443871473  1.0000
  Br  Br9       1.0  0.1479792190588773  0.18225209934684142  0.42867759095905283  1.0000
  Br  Br10      1.0  0.3520207805404161  0.18225209934684142  0.5713224089864964  1.0000
  Br  Br11      1.0  0.6479792191395276  0.6822521012994698  0.9286775909669067  1.0000
  Br  Br12      1.0  0.8520207810016034  0.6822521012994698  0.07132240911851818  1.0000
  Br  Br13      1.0  0.8520207805202465  0.817747899433365  0.5713224090562136  1.0000
  Br  Br14      1.0  0.6479792196208845  0.817747899433365  0.42867759102921127  1.0000
  Br  Br15      1.0  0.35202078043959634  0.31774790004326176  0.07132240904835974  1.0000
  Br  Br16      1.0  0.14797921915969714  0.31774790004326176  0.9286775908971896  1.0000
