data_image0
_chemical_formula_structural       H32C42O6F14S36
_chemical_formula_sum              "H32 C42 O6 F14 S36"
_cell_length_a       7.634588280143656
_cell_length_b       13.076787914865568
_cell_length_c       17.66812760779002
_cell_angle_alpha    81.28526404215255
_cell_angle_beta     87.873324140002
_cell_angle_gamma    74.70153222268056

_space_group_name_H-M_alt    "P 1"
_space_group_IT_number       1

loop_
  _space_group_symop_operation_xyz
  'x, y, z'

loop_
  _atom_site_type_symbol
  _atom_site_label
  _atom_site_symmetry_multiplicity
  _atom_site_fract_x
  _atom_site_fract_y
  _atom_site_fract_z
  _atom_site_occupancy
  H   H1        1.0  0.7316621567340749  0.4502788402336117  0.22524434450686232  1.0000
  H   H2        1.0  0.2683378428252705  0.549721159534402  0.7747556556272372  1.0000
  H   H3        1.0  0.9237788140709872  0.4757957362835426  0.174202405591647  1.0000
  H   H4        1.0  0.07622118680030707  0.5242042634816783  0.8257975945193708  1.0000
  H   H5        1.0  0.12933277866219195  0.32946497127835017  0.266240210601047  1.0000
  H   H6        1.0  0.8706672222091021  0.6705350284868706  0.7337597895099709  1.0000
  H   H7        1.0  0.9742286006413273  0.2801934844592482  0.2177170138410766  1.0000
  H   H8        1.0  0.025771398918018162  0.7198065153087656  0.7822829862930228  1.0000
  H   H9        1.0  0.7692417016776039  0.5695588322242039  0.8500369630177673  1.0000
  H   H10       1.0  0.2307582978817416  0.43044116754380984  0.14996303711633224  1.0000
  H   H11       1.0  0.5966599810768834  0.6527349914656337  0.9014944700075256  1.0000
  H   H12       1.0  0.4033400184824619  0.34726500830238  0.09850553012657391  1.0000
  H   H13       1.0  0.39409285633829655  0.5375203673452547  0.898681982987371  1.0000
  H   H14       1.0  0.6059071445329978  0.4624796324199661  0.10131801712364678  1.0000
  H   H15       1.0  0.6032214657563973  0.45994315249326195  0.9423234212938499  1.0000
  H   H16       1.0  0.3967785351148968  0.5400568472719589  0.05767657881716798  1.0000
  H   H17       1.0  0.4078559118222343  0.037280240210081084  0.05541713793663592  1.0000
  H   H18       1.0  0.5921440890490599  0.9627197595551398  0.9445828621743818  1.0000
  H   H19       1.0  0.613428492599038  0.9627460471221346  0.10218930605599977  1.0000
  H   H20       1.0  0.3865715066041068  0.037253953448119166  0.8978106934283663  1.0000
  H   H21       1.0  0.4009215638762064  0.8480281641296992  0.09438165197537575  1.0000
  H   H22       1.0  0.5990784356773615  0.15197183563904132  0.9056183475927492  1.0000
  H   H23       1.0  0.23225599331134436  0.9330141231597787  0.14513972720555895  1.0000
  H   H24       1.0  0.7677440075599498  0.06698587660544217  0.8548602729054589  1.0000
  H   H25       1.0  0.012180991539188982  0.21479668008475797  0.7792493757822649  1.0000
  H   H26       1.0  0.9878190080143788  0.7852033196839826  0.22075062378586002  1.0000
  H   H27       1.0  0.8734920716109017  0.16031694943046776  0.7266697211801424  1.0000
  H   H28       1.0  0.12650792794844365  0.839683050337546  0.2733302789539572  1.0000
  H   H29       1.0  0.07710999512489447  0.017193432104654183  0.8244142422946785  1.0000
  H   H30       1.0  0.9228900044286735  0.9828065676640864  0.17558575727344633  1.0000
  H   H31       1.0  0.26903666144889304  0.04894732145699171  0.7769338708070189  1.0000
  H   H32       1.0  0.7309633381104522  0.9510526783110219  0.2230661293270806  1.0000
  C   C1        1.0  0.7312791988219501  0.4714989901301066  0.5193102869751357  1.0000
  C   C2        1.0  0.26872080073739524  0.5285010096379071  0.4806897131589637  1.0000
  C   C3        1.0  0.678554029028538  0.49130163693505313  0.5919933786269551  1.0000
  C   C4        1.0  0.32144597018038434  0.5086983636344738  0.4080066214233858  1.0000
  C   C5        1.0  0.8390086753882279  0.4859238724360372  0.37828830232709326  1.0000
  C   C6        1.0  0.16099132512686576  0.5140761281314237  0.621711697134191  1.0000
  C   C7        1.0  0.8433122479852109  0.3804323487489957  0.39996420783324366  1.0000
  C   C8        1.0  0.15668775121793413  0.6195676518212581  0.6000357916511224  1.0000
  C   C9        1.0  0.5748960905333358  0.5776134718968291  0.7135367111278624  1.0000
  C   C10       1.0  0.4251039090202321  0.42238652787191133  0.28646328844026236  1.0000
  C   C11       1.0  0.5939150295237423  0.4704369865324164  0.7356963199411811  1.0000
  C   C12       1.0  0.40608497099712887  0.5295630140343177  0.2643036800860779  1.0000
  C   C13       1.0  0.8753174301495577  0.44700093712084904  0.23058910392638868  1.0000
  C   C14       1.0  0.12468257072173672  0.5529990626443717  0.7694108961846291  1.0000
  C   C15       1.0  0.9855473324606545  0.33375574443825734  0.2587202814254526  1.0000
  C   C16       1.0  0.014452667098691016  0.6662442553297563  0.7412797187086468  1.0000
  C   C17       1.0  0.6230265974780657  0.5967404144785999  0.8596370245148147  1.0000
  C   C18       1.0  0.3769734020755023  0.40325958529014067  0.14036297505331025  1.0000
  C   C19       1.0  0.5391316656253273  0.5054981576765715  0.8884906685361433  1.0000
  C   C20       1.0  0.4608683348897664  0.49450184289088933  0.11150933092514118  1.0000
  C   C21       1.0  0.32460918189314064  0.006715251927231357  0.4062195357180815  1.0000
  C   C22       1.0  0.6753908189723759  0.9932847478387165  0.5937804638269617  1.0000
  C   C23       1.0  0.27275272424910135  0.026112138333755586  0.4790678814843775  1.0000
  C   C24       1.0  0.7272472753044664  0.973887861434985  0.5209321180837473  1.0000
  C   C25       1.0  0.40479791629635653  0.02809300338169683  0.26212857379837284  1.0000
  C   C26       1.0  0.5952020842245147  0.9719069971850373  0.7378714262288861  1.0000
  C   C27       1.0  0.4231276095243143  0.9209714950206511  0.28416369530285057  1.0000
  C   C28       1.0  0.576872390996557  0.0790285055460829  0.7158363047244085  1.0000
  C   C29       1.0  0.16499419924894895  0.11530556655465052  0.5992295940269902  1.0000
  C   C30       1.0  0.8350057999599735  0.8846944340148764  0.4007704060233506  1.0000
  C   C31       1.0  0.17213909145099918  0.009451441849683896  0.6212174655314365  1.0000
  C   C32       1.0  0.8278609094202949  0.9905485579155371  0.3787825345795812  1.0000
  C   C33       1.0  0.4669875787494572  0.9929291682395163  0.1101994019663426  1.0000
  C   C34       1.0  0.5330124208098884  0.007070831528497474  0.8898005981677569  1.0000
  C   C35       1.0  0.3789031712395442  0.9029388136266386  0.13709310125724603  1.0000
  C   C36       1.0  0.6210968283198013  0.09706118614137502  0.8629068988768535  1.0000
  C   C37       1.0  0.014001726349377136  0.15941221105813652  0.7381347242229567  1.0000
  C   C38       1.0  0.9859982732099682  0.8405877887098772  0.2618652759111428  1.0000
  C   C39       1.0  0.12800472374278554  0.04814578916021703  0.769070651922437  1.0000
  C   C40       1.0  0.8719952767723084  0.9518542114072438  0.23092934753884747  1.0000
  C   C41       1.0  0.9915585056908834  0.1997641634339973  0.9799155593676016  1.0000
  C   C42       1.0  0.00844149386846196  0.8002358363340164  0.020084440766498044  1.0000
  O   O1        1.0  0.7467186891503276  0.11076094303311683  0.038846239624650385  1.0000
  O   O2        1.0  0.25328131040901786  0.8892390567348968  0.9611537605094491  1.0000
  O   O3        1.0  0.6896242505972535  0.3043677301253545  0.03984126108458096  1.0000
  O   O4        1.0  0.3103757489620919  0.6956322696426592  0.9601587390495185  1.0000
  O   O5        1.0  0.9172562218493715  0.17595397611126076  0.12818019138184766  1.0000
  O   O6        1.0  0.08274377770997386  0.824046023656753  0.8718198087522518  1.0000
  F   F1        1.0  0.22259447655448436  0.4085712104424256  0.9606308505720019  1.0000
  F   F2        1.0  0.7774055226544381  0.5914287901271014  0.03936914947833877  1.0000
  F   F3        1.0  0.2951521588512648  0.23623993425469197  0.018036405396156197  1.0000
  F   F4        1.0  0.7048478420200295  0.7637600655105289  0.9819635947148615  1.0000
  F   F5        1.0  0.21111153783090572  0.2789771602511393  0.8903586431087861  1.0000
  F   F6        1.0  0.7888884630403885  0.7210228395140814  0.10964135700223168  1.0000
  F   F7        1.0  0.9483309917239973  0.3992455912435448  0.923312454901224  1.0000
  F   F8        1.0  0.05166900747914772  0.6007544093267089  0.07668754458314202  1.0000
  F   F9        1.0  0.034377277849445234  0.35558311708432594  0.05033772503457979  1.0000
  F   F10       1.0  0.9656227226714262  0.644416883482408  0.9496622749926792  1.0000
  F   F11       1.0  0.12242328230026875  0.10658927840934271  0.988374118864241  1.0000
  F   F12       1.0  0.8775767172532991  0.8934107213593978  0.01162588070388408  1.0000
  F   F13       1.0  0.9130117716216162  0.21176680040691054  0.9104860222018353  1.0000
  F   F14       1.0  0.08698822793772937  0.7882331993611031  0.08951397793226439  1.0000
  S   S1        1.0  0.7604628782871118  0.571391689499972  0.4466726398490939  1.0000
  S   S2        1.0  0.23953712258418244  0.4286083102652488  0.5533273602619239  1.0000
  S   S3        1.0  0.7764393185507297  0.34365124554321297  0.49371662101929115  1.0000
  S   S4        1.0  0.22356068231478712  0.6563487542227346  0.506283378525752  1.0000
  S   S5        1.0  0.6277030455123356  0.6184888459344243  0.6187239384118328  1.0000
  S   S6        1.0  0.3722969536965869  0.38151115463510266  0.3812760616385079  1.0000
  S   S7        1.0  0.6593064186789079  0.3884832434013658  0.6645743770609684  1.0000
  S   S8        1.0  0.3406935821923862  0.611516756363855  0.3354256230500493  1.0000
  S   S9        1.0  0.8951006609480591  0.5457994721351548  0.28908687372601366  1.0000
  S   S10       1.0  0.10489933860550862  0.4542005276335858  0.7109131258421112  1.0000
  S   S11       1.0  0.9014817880005999  0.27464675489340523  0.3473182080881118  1.0000
  S   S12       1.0  0.09851821155874546  0.7253532448746085  0.6526817920459879  1.0000
  S   S13       1.0  0.5136385929221563  0.676607553425325  0.7726320016748857  1.0000
  S   S14       1.0  0.4863614066314117  0.3233924463434155  0.22736799789323925  1.0000
  S   S15       1.0  0.5699089553553404  0.40260631687975257  0.8264520297555124  1.0000
  S   S16       1.0  0.43009104551595384  0.5973936828854682  0.17354797035550557  1.0000
  S   S17       1.0  0.3440290066804111  0.1093532138082174  0.3337455806834312  1.0000
  S   S18       1.0  0.6559709928731569  0.890646785960523  0.6662544188846937  1.0000
  S   S19       1.0  0.3735973831420064  0.8797327321767544  0.379402094017834  1.0000
  S   S20       1.0  0.626402616066916  0.12026726839277248  0.6205979060325069  1.0000
  S   S21       1.0  0.22411748242894652  0.15378683666642295  0.5047581942039985  1.0000
  S   S22       1.0  0.7758825171303989  0.8462131631015908  0.49524180593010103  1.0000
  S   S23       1.0  0.24575170033840485  0.9255139088613832  0.5515373470226712  1.0000
  S   S24       1.0  0.7542483001824664  0.07448609170535087  0.4484626530045878  1.0000
  S   S25       1.0  0.42848246971036374  0.09676851613490242  0.1718043435648339  1.0000
  S   S26       1.0  0.5715175311551528  0.9032314836310452  0.8281956559802093  1.0000
  S   S27       1.0  0.4820412613580184  0.8219626436748914  0.2250342133006234  1.0000
  S   S28       1.0  0.5179587395074983  0.17803735609105642  0.7749657862444197  1.0000
  S   S29       1.0  0.1080262902282389  0.22004382118690294  0.6527762529411539  1.0000
  S   S30       1.0  0.8919737093311065  0.7799561785811108  0.3472237471929456  1.0000
  S   S31       1.0  0.1250402493643709  0.9463373483620279  0.7106893826812365  1.0000
  S   S32       1.0  0.8749597501949745  0.053662651405985924  0.2893106174528631  1.0000
  S   S33       1.0  0.11842164064687244  0.31473925784377277  0.9713316392923377  1.0000
  S   S34       1.0  0.8815783589066956  0.6852607419249677  0.028668360275787053  1.0000
  S   S35       1.0  0.8141558514050523  0.19845496782581476  0.05726032203901179  1.0000
  S   S36       1.0  0.185844149466242  0.8015450319394061  0.9427396780720062  1.0000
