data_image0
_chemical_formula_structural       H58C58N14O6S2
_chemical_formula_sum              "H58 C58 N14 O6 S2"
_cell_length_a       8.71191451605063
_cell_length_b       9.746093524211256
_cell_length_c       16.42894180777254
_cell_angle_alpha    103.370828885227
_cell_angle_beta     93.85959645047915
_cell_angle_gamma    94.28588218639712

_space_group_name_H-M_alt    "P 1"
_space_group_IT_number       1

loop_
  _space_group_symop_operation_xyz
  'x, y, z'

loop_
  _atom_site_type_symbol
  _atom_site_label
  _atom_site_symmetry_multiplicity
  _atom_site_fract_x
  _atom_site_fract_y
  _atom_site_fract_z
  _atom_site_occupancy
  H   H1        1.0  0.8588825419496977  0.6315394534978342  0.8834392222839426  1.0000
  H   H2        1.0  0.1411174573903879  0.36846054678446694  0.11656077770759302  1.0000
  H   H3        1.0  0.439604600652374  0.7417417565811739  0.5901408975577698  1.0000
  H   H4        1.0  0.5603953998381576  0.2582582437013562  0.40985910246979657  1.0000
  H   H5        1.0  0.44918012947844727  0.7032378727638554  0.47803680136974036  1.0000
  H   H6        1.0  0.5508198710120843  0.2967621275186746  0.5219631986578261  1.0000
  H   H7        1.0  0.2041437647571458  0.8923819050183219  0.09538794705489952  1.0000
  H   H8        1.0  0.79585623458294  0.10761809526397922  0.9046120529366359  1.0000
  H   H9        1.0  0.0607131853749994  0.5562848672216364  0.5683692092130361  1.0000
  H   H10       1.0  0.9392868151155321  0.4437151330608938  0.43163079081453015  1.0000
  H   H11       1.0  0.02016216812944291  0.6002601490871232  0.7009637821434248  1.0000
  H   H12       1.0  0.979837832262799  0.3997398501305344  0.2990362183399499  1.0000
  H   H13       1.0  0.01856757913891716  0.772410574130016  0.9949719638011042  1.0000
  H   H14       1.0  0.9814324212443247  0.22758942509329666  0.005028036074072883  1.0000
  H   H15       1.0  0.4588076991599267  0.9435452000410645  0.9372997774333202  1.0000
  H   H16       1.0  0.5411923013306049  0.05645480024146548  0.06270022259424617  1.0000
  H   H17       1.0  0.3905961466910135  0.8295363264257122  0.7859897214501324  1.0000
  H   H18       1.0  0.6094038537995181  0.170463673856818  0.21401027857743396  1.0000
  H   H19       1.0  0.5228529533514895  0.49982863405129574  0.357226058851209  1.0000
  H   H20       1.0  0.4771470470317524  0.5001713651720168  0.6427739410239681  1.0000
  H   H21       1.0  0.5954034707093251  0.45208194067760665  0.21089414693549308  1.0000
  H   H22       1.0  0.40459652967391685  0.5479180585457061  0.7891058529396842  1.0000
  H   H23       1.0  0.5394147333638019  0.8928927567318797  0.21699319355048752  1.0000
  H   H24       1.0  0.46058526712672987  0.10710724355065039  0.7830068064770789  1.0000
  H   H25       1.0  0.47157726234858804  0.9206264090463887  0.36162581182865916  1.0000
  H   H26       1.0  0.5284227369914976  0.07937359123591235  0.6383741881628764  1.0000
  H   H27       1.0  0.7496570504039524  0.46208172983598916  0.11954681220741714  1.0000
  H   H28       1.0  0.25034294997928963  0.5379182693873236  0.88045318766776  1.0000
  H   H29       1.0  0.8497566031728756  0.44409171303150735  0.9807306440180447  1.0000
  H   H30       1.0  0.15024339605992038  0.5559082861915762  0.01926935582110165  1.0000
  H   H31       1.0  0.6495852911758047  0.8022947673083622  0.9486279243506285  1.0000
  H   H32       1.0  0.3504147080569912  0.19770523191472125  0.05137207548851794  1.0000
  H   H33       1.0  0.5283661673685345  0.8293764438889162  0.08320630859691076  1.0000
  H   H34       1.0  0.4716338331219971  0.17062355639361385  0.9167936914306556  1.0000
  H   H35       1.0  0.7896957596916055  0.6996072410326225  0.5379813938572754  1.0000
  H   H36       1.0  0.21030424079892612  0.30039275924990755  0.46201860617029106  1.0000
  H   H37       1.0  0.913571233004984  0.6720958409394377  0.40466543727278165  1.0000
  H   H38       1.0  0.08642876748554779  0.3279041593430924  0.5953345627547847  1.0000
  H   H39       1.0  0.824240427731319  0.10356655814560364  0.4064782359659359  1.0000
  H   H40       1.0  0.1757595716087668  0.8964334421366976  0.5935217640255998  1.0000
  H   H41       1.0  0.7100872058395086  0.11550393388450532  0.5415697210262463  1.0000
  H   H42       1.0  0.28991279465102304  0.8844960663980246  0.45843027900132005  1.0000
  H   H43       1.0  0.0985974337369073  0.7092032856490486  0.3289253538959482  1.0000
  H   H44       1.0  0.9014025667536244  0.2907967146334816  0.6710746461316182  1.0000
  H   H45       1.0  0.2151703732253199  0.7007461710267808  0.1948175378077239  1.0000
  H   H46       1.0  0.7848296272652118  0.29925382925574934  0.8051824622198425  1.0000
  H   H47       1.0  0.9504833072837131  0.008730155268836453  0.13896516609313211  1.0000
  H   H48       1.0  0.04951669320681845  0.9912698450136938  0.8610348339344343  1.0000
  H   H49       1.0  0.8199811376026332  0.02993715683255946  0.270323923749771  1.0000
  H   H50       1.0  0.1800188627806086  0.9700628423907532  0.7296760761254062  1.0000
  H   H51       1.0  0.648314155998639  0.8891195059543434  0.6315869775946095  1.0000
  H   H52       1.0  0.3516858433414467  0.11088049432795773  0.3684130223969261  1.0000
  H   H53       1.0  0.8038479702604422  0.809093940487103  0.7121772937094122  1.0000
  H   H54       1.0  0.19615202897235373  0.19090605873598054  0.28782270612973404  1.0000
  H   H55       1.0  0.6456622704110309  0.6953434728066491  0.728070249822384  1.0000
  H   H56       1.0  0.3543377300795009  0.3046565274758809  0.27192975020518245  1.0000
  H   H57       1.0  0.68591308078769  0.8690010698073484  0.7953230795840709  1.0000
  H   H58       1.0  0.31408691855239573  0.13099893047495276  0.2046769204074648  1.0000
  C   C1        1.0  0.2563474111255056  0.6165946400487256  0.5150346284017795  1.0000
  C   C2        1.0  0.743652589365026  0.3834053602338046  0.4849653716257869  1.0000
  C   C3        1.0  0.13088153721869508  0.6653525504964477  0.7170765033654758  1.0000
  C   C4        1.0  0.8691184621213907  0.33464744978585337  0.28292349662605976  1.0000
  C   C5        1.0  0.1696741480445835  0.7337762370191496  0.8042664659651513  1.0000
  C   C6        1.0  0.8303258512955022  0.26622376326315156  0.1957335340263843  1.0000
  C   C7        1.0  0.06244754057465836  0.7176444025968518  0.8638665830931167  1.0000
  C   C8        1.0  0.9375524587654274  0.28235559768544927  0.1361334168984189  1.0000
  C   C9        1.0  0.10007384498253884  0.7837071772367608  0.949120833935655  1.0000
  C   C10       1.0  0.8999261543575469  0.21629282304554048  0.05087916605588055  1.0000
  C   C11       1.0  0.24313186045214202  0.8628166602803493  0.9759051347489415  1.0000
  C   C12       1.0  0.7568681400383895  0.13718334000218077  0.02409486527862503  1.0000
  C   C13       1.0  0.3486060311658119  0.8806942150403485  0.9167795823448892  1.0000
  C   C14       1.0  0.6513939681742738  0.11930578524195272  0.08322041764664641  1.0000
  C   C15       1.0  0.3108020228756779  0.8169460662978836  0.8327704952103231  1.0000
  C   C16       1.0  0.6891979775075642  0.1830539329254291  0.16722950466485415  1.0000
  C   C17       1.0  0.5291464621067364  0.5846187003591091  0.32394364991619207  1.0000
  C   C18       1.0  0.4708535372333493  0.415381299923192  0.6760563500753436  1.0000
  C   C19       1.0  0.569728558345226  0.558342030680946  0.24168637050030228  1.0000
  C   C20       1.0  0.4302714421453057  0.44165796960158404  0.7583136295272641  1.0000
  C   C21       1.0  0.5768844824185203  0.6691942777178266  0.20008000047809832  1.0000
  C   C22       1.0  0.4231155169215654  0.33080572256447444  0.7999199995134373  1.0000
  C   C23       1.0  0.5375275104589466  0.8011861446901085  0.24435805840758612  1.0000
  C   C24       1.0  0.462472488881139  0.19881385559219247  0.7556419415839495  1.0000
  C   C25       1.0  0.4993524205592708  0.8174674751490024  0.32684082289511907  1.0000
  C   C26       1.0  0.5006475798239711  0.18253252407431025  0.6731591769800581  1.0000
  C   C27       1.0  0.6310232200198881  0.649643487468822  0.11519444948125995  1.0000
  C   C28       1.0  0.36897677932019757  0.3503565128134791  0.8848055505102755  1.0000
  C   C29       1.0  0.7208900164550964  0.5387502764610747  0.08355536574763046  1.0000
  C   C30       1.0  0.2791099828849892  0.4612497238212263  0.9164446342439051  1.0000
  C   C31       1.0  0.7787454514411137  0.5289375837053089  0.005930872593751035  1.0000
  C   C32       1.0  0.2212545478989719  0.47106241657699227  0.9940691273977846  1.0000
  C   C33       1.0  0.6662774593437809  0.7275908226319855  0.9879105048252835  1.0000
  C   C34       1.0  0.33372253999630475  0.2724091776503156  0.012089495166252066  1.0000
  C   C35       1.0  0.6015088030777475  0.7438592499266669  0.06427426206799416  1.0000
  C   C36       1.0  0.39849119615504847  0.2561407492964168  0.9357257377711523  1.0000
  C   C37       1.0  0.8005737854473949  0.7878707075515636  0.5073000350420672  1.0000
  C   C38       1.0  0.19942621504313676  0.21212929273096648  0.49269996498549906  1.0000
  C   C39       1.0  0.8690830814056124  0.7723600690240102  0.43209447799766415  1.0000
  C   C40       1.0  0.13091691908491918  0.22763993125852006  0.5679055220299022  1.0000
  C   C41       1.0  0.8790361282707105  0.8855627517474307  0.39282001130548916  1.0000
  C   C42       1.0  0.12096387211253141  0.11443724747588185  0.607179988569688  1.0000
  C   C43       1.0  0.8195917116803767  0.011132082517367248  0.43312460395407487  1.0000
  C   C44       1.0  0.18040828765970904  0.988867917764934  0.5668753960374606  1.0000
  C   C45       1.0  0.7548999794776035  0.018037852786624172  0.5089889046617521  1.0000
  C   C46       1.0  0.24510002101292824  0.9819621474959059  0.49101109536581417  1.0000
  C   C47       1.0  0.9490444919364399  0.8726744632010711  0.31234018101623257  1.0000
  C   C48       1.0  0.050955508446801856  0.12732553602224145  0.6876598188589446  1.0000
  C   C49       1.0  0.05998142568120051  0.7770438639239892  0.28866243704042743  1.0000
  C   C50       1.0  0.9400185748093312  0.22295613635854103  0.711337562987139  1.0000
  C   C51       1.0  0.12666116921495676  0.7723796054733173  0.21368292948453257  1.0000
  C   C52       1.0  0.8733388301251289  0.22762039480898386  0.7863170705070031  1.0000
  C   C53       1.0  0.9797056697413341  0.9439333529461997  0.1827745988332758  1.0000
  C   C54       1.0  0.020294329491461937  0.056066646276883736  0.8172254010058705  1.0000
  C   C55       1.0  0.9075199244920762  0.9559037639378497  0.2566584002238332  1.0000
  C   C56       1.0  0.09248007474071988  0.044096235285233876  0.7433415996153132  1.0000
  C   C57       1.0  0.6846480834812219  0.8061733250233886  0.7302197153499899  1.0000
  C   C58       1.0  0.3153519170093098  0.19382667525914163  0.2697802846775764  1.0000
  N   N1        1.0  0.3956685402446005  0.6885844340011106  0.5302652724199202  1.0000
  N   N2        1.0  0.6043314590954851  0.31141556628119055  0.46973472757161544  1.0000
  N   N3        1.0  0.17125019403071576  0.6094837820576527  0.5802574989885331  1.0000
  N   N4        1.0  0.8287498064598159  0.39051621822487737  0.4197425010390334  1.0000
  N   N5        1.0  0.22306087887369946  0.6803209451998625  0.6600233779087289  1.0000
  N   N6        1.0  0.7769391216168322  0.31967905508266764  0.33997662211883756  1.0000
  N   N7        1.0  0.496106637081058  0.7122845058978701  0.36701179593733746  1.0000
  N   N8        1.0  0.5038933633111838  0.2877154933197877  0.6329882045460373  1.0000
  N   N9        1.0  0.754300033540099  0.6224205219565252  0.958844966603502  1.0000
  N   N10       1.0  0.2456999668431429  0.3775794772667874  0.04115503327167503  1.0000
  N   N11       1.0  0.7442922613775467  0.9085579877705929  0.5459000130708642  1.0000
  N   N12       1.0  0.2557077378552493  0.0914420114524907  0.4540999867682821  1.0000
  N   N13       1.0  0.08955684898152066  0.8553713487042767  0.16169941967273002  1.0000
  N   N14       1.0  0.9104431515090109  0.14462865157825358  0.8383005803548363  1.0000
  O   O1        1.0  0.9282213862547962  0.6380174132297891  0.8354911510479034  1.0000
  O   O2        1.0  0.07177861412844562  0.3619825859935235  0.1645088488272737  1.0000
  O   O3        1.0  0.2846014169750964  0.9234966284634166  0.05784986326365404  1.0000
  O   O4        1.0  0.7153985835154353  0.0765033718191136  0.9421501367639123  1.0000
  O   O5        1.0  0.5849765269316927  0.8618873334190518  0.6754924801100191  1.0000
  O   O6        1.0  0.4150234734515493  0.13811266580426082  0.3245075197651581  1.0000
  S   S1        1.0  0.18080509807699727  0.530795086682422  0.4165456110854563  1.0000
  S   S2        1.0  0.8191949024135343  0.4692049136001081  0.5834543889421101  1.0000
