data_image0
_chemical_formula_structural       H104C128N8O8F12P4
_chemical_formula_sum              "H104 C128 N8 O8 F12 P4"
_cell_length_a       13.878852050085921
_cell_length_b       10.769875649296397
_cell_length_c       17.813057285469135
_cell_angle_alpha    90.0
_cell_angle_beta     97.44236561815077
_cell_angle_gamma    90.0

_space_group_name_H-M_alt    "P 1"
_space_group_IT_number       1

loop_
  _space_group_symop_operation_xyz
  'x, y, z'

loop_
  _atom_site_type_symbol
  _atom_site_label
  _atom_site_symmetry_multiplicity
  _atom_site_fract_x
  _atom_site_fract_y
  _atom_site_fract_z
  _atom_site_occupancy
  H   H1        1.0  0.283074963427732  0.8025723510154634  0.15489155073018288  1.0000
  H   H2        1.0  0.7169250369216928  0.302572351447056  0.3451084496810374  1.0000
  H   H3        1.0  0.7169250370776494  0.1974276490498672  0.845108449578776  1.0000
  H   H4        1.0  0.28307496286314415  0.6974276486182746  0.6548915506277786  1.0000
  H   H5        1.0  0.13510677179602276  0.695282457647429  0.12076102896233144  1.0000
  H   H6        1.0  0.8648932284594626  0.19528245807902167  0.3792389708827334  1.0000
  H   H7        1.0  0.8648932287093587  0.30471754241790155  0.8792389713466274  1.0000
  H   H8        1.0  0.13510677123143494  0.804717541986309  0.6207610288599272  1.0000
  H   H9        1.0  0.0825861671170864  0.5953080108607252  0.9979371043074763  1.0000
  H   H10       1.0  0.9174138327297678  0.09530801036380201  0.5020628953329229  1.0000
  H   H11       1.0  0.9174138325738113  0.40469198920460536  0.0020628954351843126  1.0000
  H   H12       1.0  0.08258616768167422  0.9046919897015286  0.49793710440988054  1.0000
  H   H13       1.0  0.256977294278064  0.847903230024442  0.3279496717518699  1.0000
  H   H14       1.0  0.7430227052568772  0.3479032304560346  0.17205032809305212  1.0000
  H   H15       1.0  0.7430227054128337  0.1520967700408886  0.6720503279907907  1.0000
  H   H16       1.0  0.25697729443402056  0.652096769609296  0.8279496716496084  1.0000
  H   H17       1.0  0.4185723495854552  0.9487499988607151  0.1511282620104505  1.0000
  H   H18       1.0  0.5814276507639696  0.4487499983637918  0.3488717384007698  1.0000
  H   H19       1.0  0.5814276509199262  0.05125000120461555  0.8488717382985084  1.0000
  H   H20       1.0  0.4185723490208674  0.5512500017015387  0.6511282619080462  1.0000
  H   H21       1.0  0.12889426090409983  0.9815972694810691  0.3693120982865534  1.0000
  H   H22       1.0  0.8711057386308413  0.4815972689841459  0.13068790155836865  1.0000
  H   H23       1.0  0.8711057388807372  0.0184027305842615  0.6306879020222627  1.0000
  H   H24       1.0  0.12889426106005641  0.5184027310811847  0.8693120981842919  1.0000
  H   H25       1.0  0.2785282815304593  0.3564105487374658  0.2027505486716842  1.0000
  H   H26       1.0  0.7214717180044817  0.8564105483058733  0.2972494511732378  1.0000
  H   H27       1.0  0.7214717181604383  0.6435894513278648  0.7972494510709763  1.0000
  H   H28       1.0  0.2785282817803552  0.14358945175945742  0.7027505491355782  1.0000
  H   H29       1.0  0.44390655157824743  0.6140796946371492  0.34561751725029344  1.0000
  H   H30       1.0  0.5560934479566937  0.11407969414022592  0.15438248259462867  1.0000
  H   H31       1.0  0.5560934481126504  0.3859203054281815  0.6543824824923673  1.0000
  H   H32       1.0  0.44390655173420396  0.8859203059251047  0.8456175171480319  1.0000
  H   H33       1.0  0.03983517722273555  0.578432139131243  0.24209659389266022  1.0000
  H   H34       1.0  0.9601648223122055  0.07843213956283562  0.25790340595226185  1.0000
  H   H35       1.0  0.9601648225621013  0.42156786093408755  0.7579034064161558  1.0000
  H   H36       1.0  0.03983517737869213  0.9215678605024951  0.7420965937903987  1.0000
  H   H37       1.0  0.5687029183281652  0.9275008500820148  0.24345895410900922  1.0000
  H   H38       1.0  0.43129708192732036  0.4275008495850916  0.25654104573605563  1.0000
  H   H39       1.0  0.43129708217721624  0.07249914998331577  0.7565410461999496  1.0000
  H   H40       1.0  0.5687029184841218  0.572499150480239  0.7434589540067478  1.0000
  H   H41       1.0  0.22893499119027547  0.2570031474950993  0.07800966175025024  1.0000
  H   H42       1.0  0.7710650090652099  0.7570031470635066  0.4219903380948146  1.0000
  H   H43       1.0  0.771065009315106  0.7429968525702313  0.9219903385587087  1.0000
  H   H44       1.0  0.22893499062568767  0.24299685300182394  0.578009661647846  1.0000
  H   H45       1.0  0.12737361051208138  0.3748868400596409  0.976133065999343  1.0000
  H   H46       1.0  0.8726263893347729  0.8748868405565642  0.5238669336410563  1.0000
  H   H47       1.0  0.8726263898993607  0.6251131600056896  0.023866933743460585  1.0000
  H   H48       1.0  0.12737361035612474  0.12511315950876647  0.47613306610160433  1.0000
  H   H49       1.0  0.9555602891124203  0.9143921769090592  0.34685469287873066  1.0000
  H   H50       1.0  0.04443971114306517  0.41439217641213594  0.15314530696633424  1.0000
  H   H51       1.0  0.04443971057847734  0.08560782315627144  0.6531453068639299  1.0000
  H   H52       1.0  0.9555602892683769  0.5856078236531946  0.8468546927764692  1.0000
  H   H53       1.0  0.5807529258441971  0.7575819921869792  0.3411943656888917  1.0000
  H   H54       1.0  0.4192470744112884  0.25758199261857173  0.15880563415617313  1.0000
  H   H55       1.0  0.41924707456724497  0.2424180078783515  0.6588056340539117  1.0000
  H   H56       1.0  0.5807529253735486  0.7424180074467589  0.8411943661526429  1.0000
  H   H57       1.0  0.9110360254907786  0.7136894668326235  0.2830476508195564  1.0000
  H   H58       1.0  0.08896397404416254  0.21368946726421606  0.21695234902536562  1.0000
  H   H59       1.0  0.08896397420011913  0.28631053323270717  0.7169523489231042  1.0000
  H   H60       1.0  0.9110360257406744  0.7863105328011146  0.7830476512834504  1.0000
  H   H61       1.0  0.3419568054017261  0.3908360242093411  0.3883670584432722  1.0000
  H   H62       1.0  0.6580431948537594  0.8908360237777484  0.11163294140179264  1.0000
  H   H63       1.0  0.6580431950097161  0.6091639758559896  0.6116329412995312  1.0000
  H   H64       1.0  0.34195680555768265  0.10916397628758212  0.8883670583410107  1.0000
  H   H65       1.0  0.2439285403270505  0.5103315283272626  0.4201488331711384  1.0000
  H   H66       1.0  0.756071459928435  0.010331528758855195  0.07985116667392643  1.0000
  H   H67       1.0  0.7560714600843915  0.48966847173806805  0.579851166571665  1.0000
  H   H68       1.0  0.24392853985640203  0.9896684713064754  0.9201488336348895  1.0000
  H   H69       1.0  0.9742316725635852  0.7069798619724483  0.4818879727894963  1.0000
  H   H70       1.0  0.025768327785839516  0.206979862404041  0.018112027621723977  1.0000
  H   H71       1.0  0.02576832794179612  0.29302013809288224  0.5181120275194626  1.0000
  H   H72       1.0  0.9742316727195419  0.7930201376612896  0.9818879726872349  1.0000
  H   H73       1.0  0.11156641134976251  0.6326370667469243  0.42008323326142094  1.0000
  H   H74       1.0  0.8884335881851786  0.13263706717851692  0.07991676658350116  1.0000
  H   H75       1.0  0.8884335883411353  0.3673629333184063  0.5799167664812398  1.0000
  H   H76       1.0  0.1115664115057191  0.8673629328868137  0.9200832331591596  1.0000
  H   H77       1.0  0.23561930647614335  0.4561412489772751  0.6275555881820444  1.0000
  H   H78       1.0  0.7643806933707109  0.9561412485456824  0.8724444114583548  1.0000
  H   H79       1.0  0.7643806932147544  0.5438587510880556  0.3724444115606162  1.0000
  H   H80       1.0  0.23561930632018677  0.04385875151964815  0.12755558828430583  1.0000
  H   H81       1.0  0.5430577419779693  0.3950051856242116  0.5287992502935944  1.0000
  H   H82       1.0  0.4569422579628243  0.895005185192619  0.97120074991296  1.0000
  H   H83       1.0  0.4569422584334728  0.604994814441119  0.47120074944920903  1.0000
  H   H84       1.0  0.5430577418220127  0.10499481487271162  0.028799250395855906  1.0000
  H   H85       1.0  0.9647780611280741  0.6563525318383607  0.6185139451032402  1.0000
  H   H86       1.0  0.03522193943932458  0.15635253134143753  0.8814860545373018  1.0000
  H   H87       1.0  0.035221939283368  0.34364746822696984  0.3814860546395633  1.0000
  H   H88       1.0  0.9647780609721175  0.8436474687238931  0.1185139452055016  1.0000
  H   H89       1.0  0.5133962305144639  0.0004437646408955738  0.383545313326779  1.0000
  H   H90       1.0  0.4866037691144166  0.500443764209303  0.11645468708429846  1.0000
  H   H91       1.0  0.4866037692703732  0.999556235424435  0.616454686982037  1.0000
  H   H92       1.0  0.5133962306704204  0.49955623585602765  0.8835453132245176  1.0000
  H   H93       1.0  0.09762426345178786  0.5325114408702274  0.6900084150231098  1.0000
  H   H94       1.0  0.9023757364890058  0.03251144037330413  0.8099915851834448  1.0000
  H   H95       1.0  0.9023757370535935  0.4674885591951033  0.3099915852858491  1.0000
  H   H96       1.0  0.09762426320189191  0.9674885596920264  0.1900084145592158  1.0000
  H   H97       1.0  0.6803514331455665  0.24483034585197494  0.5415261036511512  1.0000
  H   H98       1.0  0.3196485667012879  0.7448303454203824  0.958473895989248  1.0000
  H   H99       1.0  0.3196485665453313  0.7551696542133557  0.4584738960915093  1.0000
  H   H100      1.0  0.6803514337101543  0.2551696546449483  0.0415261037535555  1.0000
  H   H101      1.0  0.6659471421037928  0.04703053744479313  0.46761765498473684  1.0000
  H   H102      1.0  0.3340528581516927  0.5470305370132005  0.032382344860328066  1.0000
  H   H103      1.0  0.33405285830764925  0.9529694626205375  0.5323823447580666  1.0000
  H   H104      1.0  0.6659471415392051  0.4529694630521301  0.9676176548823325  1.0000
  C   C1        1.0  0.3546752688465409  0.6986396700403467  0.2507902361975759  1.0000
  C   C2        1.0  0.6453247314089445  0.19863967047193934  0.24920976364748898  1.0000
  C   C3        1.0  0.6453247315649011  0.3013603300249839  0.7492097635452276  1.0000
  C   C4        1.0  0.3546752690964368  0.8013603295933913  0.7507902366614698  1.0000
  C   C5        1.0  0.21124734989764563  0.5322640740401215  0.16954812448543705  1.0000
  C   C6        1.0  0.7887526496372954  0.03226407447171417  0.33045187535948495  1.0000
  C   C7        1.0  0.788752649793252  0.467735926025209  0.8304518752572236  1.0000
  C   C8        1.0  0.21124735005360223  0.9677359255936164  0.6695481243831757  1.0000
  C   C9        1.0  0.34841865706150515  0.7920426686223888  0.19540156832309105  1.0000
  C   C10       1.0  0.651581342473436  0.2920426681254655  0.304598431521831  1.0000
  C   C11       1.0  0.6515813426293925  0.20795733144294187  0.8045984314195697  1.0000
  C   C12       1.0  0.3484186572174618  0.7079573319398651  0.6954015682208297  1.0000
  C   C13       1.0  0.15624569460302629  0.5995581147143375  0.1117316089844934  1.0000
  C   C14       1.0  0.8437543050258541  0.09955811514593015  0.38826839142658404  1.0000
  C   C15       1.0  0.8437543051818107  0.40044188535099307  0.8882683913243227  1.0000
  C   C16       1.0  0.1562456947589829  0.9004418849194005  0.611731608882232  1.0000
  C   C17       1.0  0.15670929945791445  0.7049563576433688  0.28199774900285907  1.0000
  C   C18       1.0  0.843290700170966  0.20495635714644556  0.21800225140821838  1.0000
  C   C19       1.0  0.8432907003269225  0.2950436424219618  0.718002251305957  1.0000
  C   C20       1.0  0.15670929961387106  0.7950436429188851  0.7819977489005977  1.0000
  C   C21       1.0  0.1260054993458825  0.5426342383425568  0.042325221498692216  1.0000
  C   C22       1.0  0.8739945009096031  0.042634237845633575  0.4576747783463727  1.0000
  C   C23       1.0  0.8739945010655595  0.45736576172277377  0.9576747782441112  1.0000
  C   C24       1.0  0.12600549887523405  0.957365762219697  0.5423252219624434  1.0000
  C   C25       1.0  0.18146404764531876  0.8181312112527167  0.3183652794276293  1.0000
  C   C26       1.0  0.8185359526101667  0.31813121168430925  0.18163472041743559  1.0000
  C   C27       1.0  0.8185359527661232  0.18186878881261395  0.6816347203151741  1.0000
  C   C28       1.0  0.18146404717467027  0.6818687883810213  0.8183652798913804  1.0000
  C   C29       1.0  0.42521453141526566  0.8744726342885194  0.19310845374823657  1.0000
  C   C30       1.0  0.5747854688402199  0.3744726337915963  0.30689154609682834  1.0000
  C   C31       1.0  0.574785468275632  0.12552736577681112  0.806891545994424  1.0000
  C   C32       1.0  0.42521453166516165  0.6255273662737344  0.6931084542121305  1.0000
  C   C33       1.0  0.10900678145386909  0.8934183702138299  0.3414508111732542  1.0000
  C   C34       1.0  0.8909932180810719  0.39341836971690664  0.15854918867166784  1.0000
  C   C35       1.0  0.8909932183309679  0.10658162985150076  0.6585491891355618  1.0000
  C   C36       1.0  0.10900678160982569  0.6065816303484239  0.8414508110709927  1.0000
  C   C37       1.0  0.2371013451992429  0.408694505241345  0.15716306553588408  1.0000
  C   C38       1.0  0.7628986550562425  0.9086945057382682  0.3428369343091808  1.0000
  C   C39       1.0  0.7628986553061385  0.5913054948239856  0.8428369347730748  1.0000
  C   C40       1.0  0.23710134535519953  0.09130549432706243  0.6571630654336227  1.0000
  C   C41       1.0  0.4389306779617263  0.6865319712844637  0.3026701817892534  1.0000
  C   C42       1.0  0.5610693223876986  0.18653197078754055  0.19732981862196683  1.0000
  C   C43       1.0  0.5610693225436552  0.3134680287808668  0.6973298185197053  1.0000
  C   C44       1.0  0.4389306773971385  0.81346802927779  0.8026701816868492  1.0000
  C   C45       1.0  0.059115589489218655  0.6672110211847666  0.2694539680013429  1.0000
  C   C46       1.0  0.9408844107662668  0.16721102161635915  0.23054603184372197  1.0000
  C   C47       1.0  0.9408844109222234  0.3327889788805641  0.7305460317414606  1.0000
  C   C48       1.0  0.059115589018570176  0.8327889784489715  0.7694539684650941  1.0000
  C   C49       1.0  0.5088638737800317  0.8626581905434506  0.24552455682048507  1.0000
  C   C50       1.0  0.49113612575490934  0.36265819097504315  0.2544754430244369  1.0000
  C   C51       1.0  0.4911361259108659  0.13734180952188005  0.7544754429221755  1.0000
  C   C52       1.0  0.5088638739359883  0.6373418090902875  0.7455245567182237  1.0000
  C   C53       1.0  0.20767871544009683  0.3525835760460316  0.08733229071909406  1.0000
  C   C54       1.0  0.7923212841887836  0.852583575614439  0.4126677096919834  1.0000
  C   C55       1.0  0.7923212843447401  0.6474164240192991  0.9126677095897219  1.0000
  C   C56       1.0  0.20767871559605341  0.14741642445089165  0.5873322906168326  1.0000
  C   C57       1.0  0.15140591606455708  0.4193774001740749  0.030256818256902074  1.0000
  C   C58       1.0  0.8485940841909284  0.919377400670998  0.4697431815881628  1.0000
  C   C59       1.0  0.848594084346885  0.5806225998912558  0.9697431814859014  1.0000
  C   C60       1.0  0.1514059154999693  0.0806225993943325  0.5302568181544979  1.0000
  C   C61       1.0  0.011956970196346842  0.8559071469504124  0.3284839235482551  1.0000
  C   C62       1.0  0.9880430293385943  0.3559071464534892  0.17151607629666696  1.0000
  C   C63       1.0  0.9880430294945507  0.1440928531149182  0.6715160761944055  1.0000
  C   C64       1.0  0.011956970352303432  0.6440928526833256  0.8284839234459936  1.0000
  C   C65       1.0  0.5162354286005003  0.7685764691759253  0.29988677812163755  1.0000
  C   C66       1.0  0.4837645710283801  0.268576468679002  0.2001132222894399  1.0000
  C   C67       1.0  0.4837645711843367  0.2314235308894054  0.7001132221871784  1.0000
  C   C68       1.0  0.5162354287564569  0.7314235313863287  0.7998867780193761  1.0000
  C   C69       1.0  0.9868895210645575  0.7428366761618702  0.2925348046900936  1.0000
  C   C70       1.0  0.013110479190927964  0.24283667659346286  0.2074651951549713  1.0000
  C   C71       1.0  0.013110479346884557  0.25716332390346036  0.7074651950527098  1.0000
  C   C72       1.0  0.9868895213144535  0.7571633234718677  0.7925348051539876  1.0000
  C   C73       1.0  0.18271484248888656  0.537941510065485  0.5191575786099341  1.0000
  C   C74       1.0  0.8172851574519071  0.0379415095685618  0.9808424215966205  1.0000
  C   C75       1.0  0.8172851580164948  0.46205848999984556  0.48084242169902486  1.0000
  C   C76       1.0  0.18271484223899062  0.9620584904967688  0.019157578146040053  1.0000
  C   C77       1.0  0.3315013107150682  0.4162496342557933  0.5018818940280231  1.0000
  C   C78       1.0  0.668498689131786  0.9162496338242007  0.9981181056123759  1.0000
  C   C79       1.0  0.6684986889758295  0.5837503658095373  0.4981181057146375  1.0000
  C   C80       1.0  0.33150131127965604  0.0837503662411299  0.0018818941304273738  1.0000
  C   C81       1.0  0.031410417376135376  0.6534094031493985  0.5148799227413106  1.0000
  C   C82       1.0  0.9685895825646582  0.15340940358099114  0.9851200774652441  1.0000
  C   C83       1.0  0.9685895831292461  0.3465905969159321  0.48512007756764836  1.0000
  C   C84       1.0  0.03141041722017876  0.8465905964843395  0.014879922843571904  1.0000
  C   C85       1.0  0.44285390437152566  0.17008408542949813  0.4094962000760742  1.0000
  C   C86       1.0  0.5571460959778992  0.6700840859264213  0.09050380033514607  1.0000
  C   C87       1.0  0.5571460954133114  0.8299159146358326  0.5905038002327417  1.0000
  C   C88       1.0  0.44285390452748224  0.32991591413890925  0.9094961999738126  1.0000
  C   C89       1.0  0.4508532845534463  0.28275435846828434  0.4504029710676537  1.0000
  C   C90       1.0  0.5491467149814948  0.7827543589652075  0.04959702877726834  1.0000
  C   C91       1.0  0.5491467152313907  0.7172456415970463  0.5495970292411623  1.0000
  C   C92       1.0  0.4508532847094028  0.21724564110012307  0.9504029709653922  1.0000
  C   C93       1.0  0.10900315822922164  0.6116157330405514  0.4796643972246129  1.0000
  C   C94       1.0  0.8909968413996588  0.11161573254362814  0.020335603186464563  1.0000
  C   C95       1.0  0.8909968415556153  0.3883842670247793  0.5203356030842031  1.0000
  C   C96       1.0  0.10900315838517821  0.8883842675217025  0.9796643971223514  1.0000
  C   C97       1.0  0.17817879223070363  0.5106457677957769  0.5959428745297027  1.0000
  C   C98       1.0  0.8218212076161507  0.010645767298853668  0.9040571251106964  1.0000
  C   C99       1.0  0.821821207460194  0.4893542322695537  0.4040571252129578  1.0000
  C   C100      1.0  0.17817879279529145  0.9893542327664769  0.09594287463210704  1.0000
  C   C101      1.0  0.5368350652201038  0.30740292439832295  0.4981302270747645  1.0000
  C   C102      1.0  0.4631649343148373  0.8074029239667304  0.0018697727701576055  1.0000
  C   C103      1.0  0.4631649344707939  0.6925970756670077  0.5018697726678961  1.0000
  C   C104      1.0  0.5368350654699998  0.1925970751700844  0.9981302275386585  1.0000
  C   C105      1.0  0.025858996699059517  0.6246498835331962  0.5907341390551497  1.0000
  C   C106      1.0  0.9741410032417342  0.12464988303627293  0.9092658611514051  1.0000
  C   C107      1.0  0.9741410030857776  0.37535011653213446  0.40926586125366626  1.0000
  C   C108      1.0  0.025858996449163594  0.8753501170290576  0.09073413859125574  1.0000
  C   C109      1.0  0.5206827999382712  0.0866838383654867  0.41562577472317747  1.0000
  C   C110      1.0  0.47931720031721425  0.5866838388624099  0.08437422512188736  1.0000
  C   C111      1.0  0.4793171997526265  0.913316161699844  0.5843742250194831  1.0000
  C   C112      1.0  0.5206828000942278  0.4133161612029207  0.915625774620916  1.0000
  C   C113      1.0  0.10000475624928905  0.5541143597502796  0.6305493809281276  1.0000
  C   C114      1.0  0.8999952436915045  0.054114360181872205  0.8694506192784269  1.0000
  C   C115      1.0  0.8999952434416085  0.445885640315051  0.36945061881453295  1.0000
  C   C116      1.0  0.10000475681387687  0.9458856398834583  0.1305493810305319  1.0000
  C   C117      1.0  0.3489887872725839  0.13500722917771027  0.36303160348582947  1.0000
  C   C118      1.0  0.6510112122623571  0.6350072287461177  0.1369683963590926  1.0000
  C   C119      1.0  0.6510112124183137  0.8649927708876203  0.6369683962568312  1.0000
  C   C120      1.0  0.34898878742854056  0.364992771319213  0.863031603383568  1.0000
  C   C121      1.0  0.6135024462956867  0.22296317229594734  0.5047650858007298  1.0000
  C   C122      1.0  0.3864975542717119  0.7229631718643548  0.9952349138398122  1.0000
  C   C123      1.0  0.38649755411575537  0.7770368277693833  0.49523491394207364  1.0000
  C   C124      1.0  0.6135024461397303  0.2770368282009759  0.004765085902991173  1.0000
  C   C125      1.0  0.605984462067118  0.11280530523854006  0.46318699972778726  1.0000
  C   C126      1.0  0.3940155382823068  0.6128053048069475  0.03681300068343305  1.0000
  C   C127      1.0  0.3940155384382634  0.8871946948267906  0.5368130005811717  1.0000
  C   C128      1.0  0.6059844615025302  0.3871946952583831  0.9631869996253831  1.0000
  N   N1        1.0  0.37462032502748877  0.3697905927316984  0.4418640584807116  1.0000
  N   N2        1.0  0.6253796746013917  0.8697905932286217  0.058135941930365906  1.0000
  N   N3        1.0  0.6253796747573482  0.6302094073336322  0.5581359418281044  1.0000
  N   N4        1.0  0.3746203251834454  0.13020940683670898  0.9418640583784501  1.0000
  N   N5        1.0  0.2540463317606779  0.4928882953580617  0.47753599949965125  1.0000
  N   N6        1.0  0.7459536684948076  0.992888295854985  0.022464000345413612  1.0000
  N   N7        1.0  0.7459536687447035  0.5071117047072689  0.5224640008093077  1.0000
  N   N8        1.0  0.2540463311960901  0.007111704210345624  0.977535999397247  1.0000
  O   O1        1.0  0.27341455577604434  0.502923162381532  0.32121863577010595  1.0000
  O   O2        1.0  0.7265854444794413  0.002923162813124657  0.17878136407495887  1.0000
  O   O3        1.0  0.7265854447293372  0.49707683768379857  0.678781364538853  1.0000
  O   O4        1.0  0.2734145552114565  0.997076837252206  0.8212186356677018  1.0000
  O   O5        1.0  0.3591177447565906  0.39007843793205355  0.5690783565725435  1.0000
  O   O6        1.0  0.6408822550902639  0.890078437500461  0.930921643067856  1.0000
  O   O7        1.0  0.6408822549343072  0.609921562133277  0.4309216431701172  1.0000
  O   O8        1.0  0.3591177453211783  0.10992156256486965  0.06907835667494767  1.0000
  F   F1        1.0  0.3156116210433981  0.22075793977763578  0.3085712985636514  1.0000
  F   F2        1.0  0.6843883792120873  0.7207579393460432  0.19142870128141345  1.0000
  F   F3        1.0  0.6843883786474996  0.7792420602876948  0.6914287011790092  1.0000
  F   F4        1.0  0.3156116211993547  0.2792420607192875  0.80857129846139  1.0000
  F   F5        1.0  0.27453265261408105  0.12225500858833212  0.4070009315264525  1.0000
  F   F6        1.0  0.7254673476414044  0.6222550081567395  0.09299906831861235  1.0000
  F   F7        1.0  0.7254673470768166  0.8777449914769985  0.5929990682162081  1.0000
  F   F8        1.0  0.27453265277003763  0.3777449919085911  0.9070009314241909  1.0000
  F   F9        1.0  0.3544238545241616  0.025078624748805282  0.3260711328948661  1.0000
  F   F10       1.0  0.645576145731324  0.5250786243172126  0.1739288669501988  1.0000
  F   F11       1.0  0.6455761458872805  0.9749213753165253  0.6739288668479373  1.0000
  F   F12       1.0  0.3544238540535131  0.4749213757481179  0.8260711333586171  1.0000
  P   P1        1.0  0.2517547258968624  0.6010112391987434  0.2606371088439877  1.0000
  P   P2        1.0  0.7482452743586231  0.1010112396303361  0.2393628910010772  1.0000
  P   P3        1.0  0.7482452745145797  0.3989887608665871  0.7393628908988157  1.0000
  P   P4        1.0  0.2517547253322745  0.8989887604349945  0.7606371087415834  1.0000
