data_image0
_chemical_formula_structural       H52C64N6O4P2
_chemical_formula_sum              "H52 C64 N6 O4 P2"
_cell_length_a       9.580944530067548
_cell_length_b       11.843559007060502
_cell_length_c       12.541759621296613
_cell_angle_alpha    80.08707521879296
_cell_angle_beta     81.7613316610463
_cell_angle_gamma    66.60142466623051

_space_group_name_H-M_alt    "P 1"
_space_group_IT_number       1

loop_
  _space_group_symop_operation_xyz
  'x, y, z'

loop_
  _atom_site_type_symbol
  _atom_site_label
  _atom_site_symmetry_multiplicity
  _atom_site_fract_x
  _atom_site_fract_y
  _atom_site_fract_z
  _atom_site_occupancy
  H   H1        1.0  0.5576134199557614  0.5510352530777132  0.9266778905786985  1.0000
  H   H2        1.0  0.44238658035892403  0.4489647474237479  0.07332210914530368  1.0000
  H   H3        1.0  0.4766357316592922  0.38896373228730635  0.8864582118815724  1.0000
  H   H4        1.0  0.5233642676102246  0.6110362682180221  0.11354178783999852  1.0000
  H   H5        1.0  0.38138394272751414  0.40717961129917407  0.7072659088981125  1.0000
  H   H6        1.0  0.618616057937786  0.5928203881636201  0.2927340916370806  1.0000
  H   H7        1.0  0.3729874805079983  0.5853372476729627  0.5668225101786403  1.0000
  H   H8        1.0  0.627012519209285  0.4146627519125238  0.4331774895419107  1.0000
  H   H9        1.0  0.44697170926845764  0.7505602153974982  0.6082978065301176  1.0000
  H   H10       1.0  0.5530282900010592  0.2494397851078301  0.3917021931914534  1.0000
  H   H11       1.0  0.7175379585005687  0.8014514729362802  0.9751065043524854  1.0000
  H   H12       1.0  0.282462041814117  0.1985485275651809  0.024893495371516906  1.0000
  H   H13       1.0  0.617764965842841  0.8583453405402518  0.16147763886195274  1.0000
  H   H14       1.0  0.3822350338744422  0.14165465904523453  0.8385223608585983  1.0000
  H   H15       1.0  0.34597332355228105  0.8989364538953465  0.2244254748437077  1.0000
  H   H16       1.0  0.654026677113019  0.10106354556744782  0.7755745256914854  1.0000
  H   H17       1.0  0.1771671449937246  0.8714959707037961  0.10577744288114282  1.0000
  H   H18       1.0  0.8228328546264069  0.1285040287628655  0.894222557651619  1.0000
  H   H19       1.0  0.27640889622629394  0.810885836468989  0.9232878935795753  1.0000
  H   H20       1.0  0.7235911029460712  0.18911416391751457  0.0767121069542064  1.0000
  H   H21       1.0  0.7041932823937624  0.9334074022077272  0.6649521370433212  1.0000
  H   H22       1.0  0.2958067167786024  0.06659259817877629  0.3350478634904606  1.0000
  H   H23       1.0  0.5928214547812533  0.13806370809368035  0.5535734836135834  1.0000
  H   H24       1.0  0.40717854483887833  0.8619362913729812  0.44642651691917834  1.0000
  H   H25       1.0  0.3112997849010664  0.23708105287393064  0.5393649443900588  1.0000
  H   H26       1.0  0.6887002153164671  0.7629189475087056  0.46063505614615435  1.0000
  H   H27       1.0  0.1446144717102192  0.12782358521373471  0.63165028282592  1.0000
  H   H28       1.0  0.8553855290522325  0.8721764143678844  0.3683497168970625  1.0000
  H   H29       1.0  0.25424892607412175  0.9243634594115636  0.7421843200572357  1.0000
  H   H30       1.0  0.7457510730982433  0.07563654097493988  0.257815680476546  1.0000
  H   H31       1.0  0.9207029777546872  0.6703287446569227  0.6968607505777086  1.0000
  H   H32       1.0  0.07929702196259604  0.32967125492856375  0.30313924914284246  1.0000
  H   H33       1.0  0.8738872881024423  0.5672291809219178  0.8277264206205684  1.0000
  H   H34       1.0  0.1261127121150913  0.4327708194607185  0.1722735799156447  1.0000
  H   H35       1.0  0.12575957249675332  0.8832060989980488  0.40668434028612  1.0000
  H   H36       1.0  0.8742404271233781  0.11679390046861277  0.5933156602466418  1.0000
  H   H37       1.0  0.2485783796322246  0.7289188620030982  0.2746365803694232  1.0000
  H   H38       1.0  0.7514216196372923  0.2710811385022302  0.7253634193521478  1.0000
  H   H39       1.0  0.26039209363698856  0.5135290054899452  0.3266205239383277  1.0000
  H   H40       1.0  0.7396079060802947  0.4864709940955413  0.6733794757822233  1.0000
  H   H41       1.0  0.1518522078691326  0.4504543692118068  0.5071385002625651  1.0000
  H   H42       1.0  0.8481477917509989  0.5495456302548547  0.4928615002701966  1.0000
  H   H43       1.0  0.09761574391684509  0.2374155233454167  0.7916760977182188  1.0000
  H   H44       1.0  0.9023842558004381  0.7625844762400696  0.20832390200233222  1.0000
  H   H45       1.0  0.1231922834176716  0.06605221043316736  0.9421112869625655  1.0000
  H   H46       1.0  0.8768077172476283  0.9339477890296269  0.057888713572627586  1.0000
  H   H47       1.0  0.011786644060132861  0.11270806578050668  0.13014035870613594  1.0000
  H   H48       1.0  0.9882133556571504  0.8872919338049795  0.869859641014415  1.0000
  H   H49       1.0  0.8627921578237373  0.3319958235724385  0.16260449186679518  1.0000
  H   H50       1.0  0.1372078418935459  0.6680041760130478  0.8373955078537557  1.0000
  H   H51       1.0  0.8385401652441569  0.5030690271109569  0.01197188489914996  1.0000
  H   H52       1.0  0.1614598340253601  0.4969309733943714  0.9880281148224209  1.0000
  C   C1        1.0  0.5053919143099945  0.6624794854226311  0.770541267011032  1.0000
  C   C2        1.0  0.4946080849595223  0.3375205150826973  0.22945873271053882  1.0000
  C   C3        1.0  0.5151157624719443  0.5594194948312926  0.8483576466775616  1.0000
  C   C4        1.0  0.4848842377455892  0.4405805055513437  0.1516423538586515  1.0000
  C   C5        1.0  0.470365892026509  0.4681991678215531  0.8256115758304303  1.0000
  C   C6        1.0  0.5296341087359429  0.531800831760066  0.17438842389255194  1.0000
  C   C7        1.0  0.4181817596925919  0.477726925487301  0.7245660700762191  1.0000
  C   C8        1.0  0.5818182405249418  0.5222730748953353  0.2754339304599939  1.0000
  C   C9        1.0  0.41129754020297743  0.5786896466076744  0.646146316760689  1.0000
  C   C10       1.0  0.5887024604623224  0.4213103528551198  0.3538536837745042  1.0000
  C   C11       1.0  0.45360176111664346  0.6712606199062352  0.6691349172829741  1.0000
  C   C12       1.0  0.546398239198042  0.3287393805952259  0.3308650824410281  1.0000
  C   C13       1.0  0.5028291378557186  0.8052266837714216  0.9366238747272967  1.0000
  C   C14       1.0  0.4971708628095815  0.19477331569137263  0.06337612580789642  1.0000
  C   C15       1.0  0.5993692470885086  0.8171927069869772  0.004371586163056698  1.0000
  C   C16       1.0  0.4006307535767914  0.18280729247581698  0.9956284143721366  1.0000
  C   C17       1.0  0.5428027583194619  0.8499022067857736  0.10840126616631252  1.0000
  C   C18       1.0  0.4571972423458381  0.15009779267702078  0.8915987343688806  1.0000
  C   C19       1.0  0.39055713250327523  0.8714872886282571  0.14403550789913672  1.0000
  C   C20       1.0  0.6094428682591766  0.12851271095336203  0.8559644918238456  1.0000
  C   C21       1.0  0.2951372865574331  0.8574218035244588  0.07731404693552105  1.0000
  C   C22       1.0  0.7048627137572522  0.14257819697700239  0.9226859527884812  1.0000
  C   C23       1.0  0.35105080551212375  0.8238433317953194  0.9737888464111849  1.0000
  C   C24       1.0  0.6489491937573931  0.17615666871000887  0.026211153310386037  1.0000
  C   C25       1.0  0.48745886754646944  0.9160600280805357  0.7113254530647555  1.0000
  C   C26       1.0  0.5125411332159825  0.08393997150108344  0.2886745466582268  1.0000
  C   C27       1.0  0.5818796011987307  0.9761702272275118  0.6566566054449833  1.0000
  C   C28       1.0  0.4181203985185526  0.02382977235797462  0.34334339427556765  1.0000
  C   C29       1.0  0.5184404786411002  0.09126754103865786  0.5943700549809563  1.0000
  C   C30       1.0  0.48155952157643345  0.9087324593439784  0.4056299455552568  1.0000
  C   C31       1.0  0.3615399593342476  0.14606009735392878  0.5857730296565735  1.0000
  C   C32       1.0  0.6384600409804378  0.8539399031475323  0.4142269700674288  1.0000
  C   C33       1.0  0.26715821967640996  0.08522389635739958  0.6386716235866537  1.0000
  C   C34       1.0  0.7328417809888899  0.9147761031053948  0.3613283769485394  1.0000
  C   C35       1.0  0.32932314921787  0.9706653250247868  0.7014637364204565  1.0000
  C   C36       1.0  0.670676851544582  0.029334674556832165  0.298536263302526  1.0000
  C   C37       1.0  0.1334477926396639  0.7878038250186579  0.4276196137775888  1.0000
  C   C38       1.0  0.866552206629853  0.21219617548667033  0.5723803859439821  1.0000
  C   C39       1.0  0.2007494202647251  0.7023015215962527  0.3542014186270741  1.0000
  C   C40       1.0  0.7992505790047919  0.2976984789090756  0.6457985810944967  1.0000
  C   C41       1.0  0.2076536905868463  0.5809004312845314  0.38389604291978097  1.0000
  C   C42       1.0  0.7923463096306873  0.4190995690981049  0.6161039576164321  1.0000
  C   C43       1.0  0.1465478963300683  0.5446279510862306  0.48481545072879184  1.0000
  C   C44       1.0  0.8534521032900634  0.45537204838043094  0.5151845498039699  1.0000
  C   C45       1.0  0.07522066659916195  0.6299996266036576  0.5602367420524702  1.0000
  C   C46       1.0  0.9247793331181213  0.3700003729818287  0.4397632576680806  1.0000
  C   C47       1.0  0.07187456179058936  0.7524262603242116  0.5308117752180469  1.0000
  C   C48       1.0  0.9281254388747106  0.24757373913858258  0.46918822531714627  1.0000
  C   C49       1.0  0.01463711244152899  0.839665470792672  0.6066394588698768  1.0000
  C   C50       1.0  0.9853628868279878  0.16033452971265647  0.39336054085169414  1.0000
  C   C51       1.0  0.046595327782064794  0.4813035103167136  0.7174979255551824  1.0000
  C   C52       1.0  0.9534046719352185  0.5186964892687728  0.28250207416536854  1.0000
  C   C53       1.0  0.9681382762112841  0.3809974453805539  0.8924794537369993  1.0000
  C   C54       1.0  0.031861724006249516  0.6190025550020823  0.10752054679921383  1.0000
  C   C55       1.0  0.046119418606511364  0.25712426164685365  0.8727043035698072  1.0000
  C   C56       1.0  0.95388058101362  0.7428757378198081  0.1272956969629546  1.0000
  C   C57       1.0  0.05945799929938907  0.16171273235133282  0.9579353606838581  1.0000
  C   C58       1.0  0.9405420003207424  0.8382872671153287  0.04206463984890371  1.0000
  C   C59       1.0  0.9961801332087467  0.1871723112009691  0.0628455236038996  1.0000
  C   C60       1.0  0.003819866060770307  0.8128276893043592  0.9371544761176712  1.0000
  C   C61       1.0  0.914351827931421  0.31047756880731386  0.0814587647182369  1.0000
  C   C62       1.0  0.08564817238326461  0.6895224316941473  0.9185412350057652  1.0000
  C   C63       1.0  0.8996068697081198  0.40674581060934367  0.9971628483477125  1.0000
  C   C64       1.0  0.10039313060656556  0.5932541898921175  0.002837151376289687  1.0000
  N   N1        1.0  0.9712630702462327  0.9130942754371276  0.6679308819572878  1.0000
  N   N2        1.0  0.02873692902328397  0.08690572506820081  0.33206911776428305  1.0000
  N   N3        1.0  0.00797816786239565  0.6002663531070149  0.6605182089197823  1.0000
  N   N4        1.0  0.9920218329000563  0.39973364647460413  0.3394817908032  1.0000
  N   N5        1.0  0.9541619105284292  0.4817416376578632  0.8121221838654238  1.0000
  N   N6        1.0  0.045838089786256114  0.5182583628435979  0.18787781585857855  1.0000
  O   O1        1.0  0.7476495918264128  0.7302086922074691  0.7869471866893462  1.0000
  O   O2        1.0  0.25235040789087054  0.2697913073780172  0.2130528130312047  1.0000
  O   O3        1.0  0.15282535775039743  0.3888829067157519  0.6868091627748802  1.0000
  O   O4        1.0  0.8471746429149025  0.6111170927470425  0.3131908377603128  1.0000
  P   P1        1.0  0.5754963432017209  0.7739458417406526  0.7993737443787335  1.0000
  P   P2        1.0  0.4245036560677959  0.2260541587646757  0.2006262553428372  1.0000
