data_image0
_chemical_formula_structural       H20C10N4O12P4
_chemical_formula_sum              "H20 C10 N4 O12 P4"
_cell_length_a       7.500135560489328
_cell_length_b       8.261060760103828
_cell_length_c       9.228118390365246
_cell_angle_alpha    106.81107420680742
_cell_angle_beta     105.96299322923832
_cell_angle_gamma    102.7860032536511

_space_group_name_H-M_alt    "P 1"
_space_group_IT_number       1

loop_
  _space_group_symop_operation_xyz
  'x, y, z'

loop_
  _atom_site_type_symbol
  _atom_site_label
  _atom_site_symmetry_multiplicity
  _atom_site_fract_x
  _atom_site_fract_y
  _atom_site_fract_z
  _atom_site_occupancy
  H   H1        1.0  0.7110815359055077  0.17858696923051556  0.34969119198293663  1.0000
  H   H2        1.0  0.2889184643295506  0.8214130309258292  0.6503088085986183  1.0000
  H   H3        1.0  0.7673406401924644  0.8052513008012283  0.5146874080148758  1.0000
  H   H4        1.0  0.23265935981105104  0.1947487000871678  0.485312591345015  1.0000
  H   H5        1.0  0.8161048202323473  0.278735222052035  0.6999570470062516  1.0000
  H   H6        1.0  0.18389518000271113  0.7212647781043099  0.30004295357530336  1.0000
  H   H7        1.0  0.4020046080769234  0.5100845437350001  0.7117655305591213  1.0000
  H   H8        1.0  0.5979953924604291  0.4899154576598427  0.2882344700157258  1.0000
  H   H9        1.0  0.19210644120563242  0.5448023549876312  0.8598707350101507  1.0000
  H   H10       1.0  0.8078935590294261  0.45519764516871364  0.1401292655714042  1.0000
  H   H11       1.0  0.29509868536891853  0.6937661849427506  0.06481633591380812  1.0000
  H   H12       1.0  0.7049013148661399  0.30623381521359433  0.9351836646677468  1.0000
  H   H13       1.0  0.6412621799487247  0.8651687199597269  0.20262692205211238  1.0000
  H   H14       1.0  0.3587378202863338  0.134831280196618  0.7973730785294424  1.0000
  H   H15       1.0  0.9680671997369477  0.9320201364692762  0.1838386591996191  1.0000
  H   H16       1.0  0.031932800498110606  0.06797986368706858  0.8161613413819357  1.0000
  H   H17       1.0  0.007151323284818198  0.7808909250283219  0.9171904875268019  1.0000
  H   H18       1.0  0.992848676416403  0.21910907462157608  0.08280951183979657  1.0000
  H   H19       1.0  0.7038264739977845  0.5659639960341529  0.6821133302472581  1.0000
  H   H20       1.0  0.29617352653956813  0.43403600536069015  0.3178866703275891  1.0000
  C   C1        1.0  0.49370711078806817  0.6768970839325348  0.9545130877330933  1.0000
  C   C2        1.0  0.506292888913153  0.3231029157173632  0.04548691163350504  1.0000
  C   C3        1.0  0.6602742634814416  0.800007519681932  0.09021433864189086  1.0000
  C   C4        1.0  0.3397257367536169  0.199992480474413  0.9097856619396641  1.0000
  C   C5        1.0  0.842403341853299  0.8367226578641493  0.0777566949563222  1.0000
  C   C6        1.0  0.15759665838175943  0.16327734229219548  0.9222433056252327  1.0000
  C   C7        1.0  0.8654347941723165  0.7525378495599184  0.9307343824355798  1.0000
  C   C8        1.0  0.13456520552890475  0.24746215008997974  0.06926561693101867  1.0000
  C   C9        1.0  0.7014745790350907  0.6341249471439233  0.8012038733458777  1.0000
  C   C10       1.0  0.2985254211999677  0.36587505301242146  0.19879612723567702  1.0000
  N   N1        1.0  0.5230748502486683  0.5976198933746086  0.8155260614475595  1.0000
  N   N2        1.0  0.47692514998639  0.40238010678173625  0.18447393913399546  1.0000
  N   N3        1.0  0.3123306501535348  0.6352548164346735  0.9579036987355769  1.0000
  N   N4        1.0  0.6876693500815236  0.36474518372167125  0.042096301845977915  1.0000
  O   O1        1.0  0.9589202170182404  0.39047149315767915  0.6744128369513942  1.0000
  O   O2        1.0  0.04107978298527508  0.609528507730717  0.32558716240849633  1.0000
  O   O3        1.0  0.21378672861795783  0.3695417424111053  0.5378990460048363  1.0000
  O   O4        1.0  0.7862132716171005  0.6304582577452396  0.4621009545767187  1.0000
  O   O5        1.0  0.8582659545329171  0.21699976736415547  0.36353879527663785  1.0000
  O   O6        1.0  0.14173404570214132  0.7830002327921893  0.636461205304917  1.0000
  O   O7        1.0  0.5001076959444638  0.8816916937942195  0.678736773875741  1.0000
  O   O8        1.0  0.4998923042905945  0.11830830636212536  0.32126322670581386  1.0000
  O   O9        1.0  0.7688004224309656  0.939234054152202  0.5544774034739599  1.0000
  O   O10       1.0  0.23119957727025567  0.0607659454976963  0.44552259589263854  1.0000
  O   O11       1.0  0.705186992979611  0.19721958118125826  0.7273188747584669  1.0000
  O   O12       1.0  0.2948130072554475  0.8027804189750867  0.272681125823088  1.0000
  P   P1        1.0  0.006934947286018596  0.3774701531123573  0.5216706165876076  1.0000
  P   P2        1.0  0.9930650529490398  0.6225298470439875  0.4783293839939472  1.0000
  P   P3        1.0  0.6047782912912683  0.996189803411905  0.6075565431049496  1.0000
  P   P4        1.0  0.39522170894379005  0.0038101967444397937  0.3924434574766053  1.0000
