data_image0
_chemical_formula_structural       H80C72N20O20Cl4
_chemical_formula_sum              "H80 C72 N20 O20 Cl4"
_cell_length_a       5.881028553521751
_cell_length_b       7.751543274084411
_cell_length_c       40.70473669970654
_cell_angle_alpha    90.0
_cell_angle_beta     90.0
_cell_angle_gamma    90.0

_space_group_name_H-M_alt    "P 1"
_space_group_IT_number       1

loop_
  _space_group_symop_operation_xyz
  'x, y, z'

loop_
  _atom_site_type_symbol
  _atom_site_label
  _atom_site_symmetry_multiplicity
  _atom_site_fract_x
  _atom_site_fract_y
  _atom_site_fract_z
  _atom_site_occupancy
  H   H1        1.0  0.09560934365184943  0.5348826038115272  0.2529570301845051  1.0000
  H   H2        1.0  0.40439065519854295  0.465117395661557  0.7529570301881099  1.0000
  H   H3        1.0  0.9043906557493182  0.03488260472001792  0.247042969573428  1.0000
  H   H4        1.0  0.5956093442026247  0.9651173960431318  0.7470429695770328  1.0000
  H   H5        1.0  0.8615571840687307  0.5566935934457132  0.3531519819437534  1.0000
  H   H6        1.0  0.6384428158832122  0.4433064073174366  0.8531519819473582  1.0000
  H   H7        1.0  0.13844281703281971  0.05669359306413832  0.14684801805985137  1.0000
  H   H8        1.0  0.36155718351795557  0.9433064064089458  0.6468480180634562  1.0000
  H   H9        1.0  0.5649995404307657  0.3393754155762909  0.33836306132154137  1.0000
  H   H10       1.0  0.935000459521177  0.6606245851868588  0.838363061325146  1.0000
  H   H11       1.0  0.4350004606707847  0.8393754146678002  0.16163693868206336  1.0000
  H   H12       1.0  0.06499953987999053  0.16062458480528397  0.6616369386856681  1.0000
  H   H13       1.0  0.3434447820850101  0.6199953080398253  0.3193026962902257  1.0000
  H   H14       1.0  0.15655521676538223  0.3800046927233246  0.8193026962938305  1.0000
  H   H15       1.0  0.6565552173161575  0.11999530765825034  0.18069730371337908  1.0000
  H   H16       1.0  0.8434447826357854  0.8800046918148338  0.6806973037169839  1.0000
  H   H17       1.0  0.23432031785915788  0.7596518850235703  0.2884197840809185  1.0000
  H   H18       1.0  0.26567968269161735  0.24034811444951393  0.7884197840845233  1.0000
  H   H19       1.0  0.7656796832423926  0.2596518846419953  0.21158021592268622  1.0000
  H   H20       1.0  0.7343203167095503  0.7403481148310888  0.711580215926291  1.0000
  H   H21       1.0  0.8096320272324946  0.9355469683366473  0.3329807712550003  1.0000
  H   H22       1.0  0.6903679727194483  0.06445303242650251  0.8329807712586051  1.0000
  H   H23       1.0  0.19036797216867302  0.4355469679550724  0.16701922874860445  1.0000
  H   H24       1.0  0.30963202668171935  0.5644530328080775  0.6670192287522092  1.0000
  H   H25       1.0  0.008757020907364913  0.9957551595958423  0.30185095878752066  1.0000
  H   H26       1.0  0.4912429796434103  0.00424484116730762  0.8018509587911256  1.0000
  H   H27       1.0  0.9912429801941856  0.4957551592142673  0.19814904121608404  1.0000
  H   H28       1.0  0.5087570197577573  0.5042448402588169  0.6981490412196888  1.0000
  H   H29       1.0  0.1707433573670858  0.2120384989006128  0.33691006801424345  1.0000
  H   H30       1.0  0.3292566431836894  0.787961501862537  0.8369100677721766  1.0000
  H   H31       1.0  0.8292566437344646  0.712038497992122  0.16308993198936134  1.0000
  H   H32       1.0  0.6707433562174783  0.2879615014809621  0.6630899319929662  1.0000
  H   H33       1.0  0.9386591035498845  0.17202269443016197  0.3641924749290143  1.0000
  H   H34       1.0  0.5613408964020583  0.8279773050429221  0.864192474932619  1.0000
  H   H35       1.0  0.06134089585128314  0.6720226948117369  0.1358075250745905  1.0000
  H   H36       1.0  0.43865910469949204  0.3279773059514129  0.6358075250781953  1.0000
  H   H37       1.0  0.7762960846816632  0.8061538946563006  0.3984077867801788  1.0000
  H   H38       1.0  0.7237039152702797  0.1938461048167835  0.8984077867837834  1.0000
  H   H39       1.0  0.2237039147195044  0.3061538942747257  0.101592213223426  1.0000
  H   H40       1.0  0.27629608413088796  0.6938461051983584  0.6015922132270307  1.0000
  H   H41       1.0  0.6529779008980283  0.9129650057763369  0.4521357149604823  1.0000
  H   H42       1.0  0.8470220990539146  0.0870349936967472  0.9521357149640871  1.0000
  H   H43       1.0  0.3470221002035222  0.4129650066848277  0.04786428504312242  1.0000
  H   H44       1.0  0.15297790034725303  0.5870349940783222  0.5478642850467272  1.0000
  H   H45       1.0  0.4384967317418862  0.755619681513271  0.444763561881252  1.0000
  H   H46       1.0  0.06150326710850619  0.2443803192498789  0.9447635618848568  1.0000
  H   H47       1.0  0.5615032676592814  0.25561968113169603  0.05523643812235272  1.0000
  H   H48       1.0  0.9384967322926614  0.7443803183413882  0.5552364381259575  1.0000
  H   H49       1.0  0.1628129537692201  0.9720710384462141  0.43400041917301885  1.0000
  H   H50       1.0  0.33718704678155514  0.027928962316935712  0.9340004191766236  1.0000
  H   H51       1.0  0.8371870473323303  0.47207103806463924  0.06599958083058595  1.0000
  H   H52       1.0  0.6628129526196125  0.5279289626985106  0.5659995805885191  1.0000
  H   H53       1.0  0.3632815638551208  0.12196307710243262  0.4502859329423482  1.0000
  H   H54       1.0  0.1367184366956545  0.8780369236607172  0.950285932945953  1.0000
  H   H55       1.0  0.6367184372464297  0.6219630761939419  0.04971406706125652  1.0000
  H   H56       1.0  0.863281562705513  0.3780369232791423  0.5497140670648613  1.0000
  H   H57       1.0  0.3750962845910695  0.2342268314582112  0.39476874051652694  1.0000
  H   H58       1.0  0.12490371425932295  0.7657731693049387  0.8947687405201317  1.0000
  H   H59       1.0  0.6249037148100982  0.7342268318397861  0.10523125948707786  1.0000
  H   H60       1.0  0.8750962851418446  0.2657731689233637  0.6052312594906827  1.0000
  H   H61       1.0  0.6671549771086296  0.6238717941713626  0.4984214397374119  1.0000
  H   H62       1.0  0.8328450245436961  0.37612820530172153  0.9984214397410166  1.0000
  H   H63       1.0  0.33284502399292093  0.1238717950798534  0.0015785602661928838  1.0000
  H   H64       1.0  0.1671549765578543  0.8761282056832964  0.5015785602697976  1.0000
  H   H65       1.0  0.20713458180211075  0.4116017465408342  0.45389553889764384  1.0000
  H   H66       1.0  0.2928654187486645  0.58839825293225  0.9538955389012486  1.0000
  H   H67       1.0  0.7928654175990568  0.911601746922409  0.04610446110596091  1.0000
  H   H68       1.0  0.7071345823528858  0.088398252550675  0.5461044611095657  1.0000
  H   H69       1.0  0.05239856892302713  0.4991307579918011  0.42029677863321835  1.0000
  H   H70       1.0  0.44760142992736524  0.500869241481283  0.9202967786368232  1.0000
  H   H71       1.0  0.9476014304781404  0.9991307583733761  0.07970322137038635  1.0000
  H   H72       1.0  0.5523985694738024  0.0008692410997080923  0.5797032213739911  1.0000
  H   H73       1.0  0.7746944753858948  0.27502919929861497  0.42613724658056945  1.0000
  H   H74       1.0  0.725305524566048  0.7249708001744691  0.9261372465841742  1.0000
  H   H75       1.0  0.22530552571565568  0.7750291996801899  0.0738627534230353  1.0000
  H   H76       1.0  0.27469447483511955  0.22497080108295991  0.5738627534266401  1.0000
  H   H77       1.0  0.9256763201294098  0.19106199599652424  0.4604452574713528  1.0000
  H   H78       1.0  0.574323679822533  0.80893800347656  0.9604452574749577  1.0000
  H   H79       1.0  0.07432367927175776  0.6910619963780992  0.039554742532251976  1.0000
  H   H80       1.0  0.4256763212790175  0.3089380043850507  0.5395547425358568  1.0000
  C   C1        1.0  0.6814008406064066  0.3254858033799742  0.287812584477041  1.0000
  C   C2        1.0  0.8185991593455363  0.6745141973831756  0.7878125844806457  1.0000
  C   C3        1.0  0.31859915879476103  0.8254858024714835  0.21218741552656373  1.0000
  C   C4        1.0  0.18140084005563134  0.17451419700160073  0.7121874155301685  1.0000
  C   C5        1.0  0.9808002252507116  0.49439281888710873  0.2725848991938079  1.0000
  C   C6        1.0  0.5191997747012311  0.5056071805859754  0.7725848991974127  1.0000
  C   C7        1.0  0.019199774150455907  0.9943928192686836  0.22741510080979688  1.0000
  C   C8        1.0  0.4808002264003193  0.005607180204400506  0.7274151008134017  1.0000
  C   C9        1.0  0.003091149759698708  0.5640270273168819  0.3040830378369512  1.0000
  C   C10       1.0  0.4969088507910765  0.43597297344626795  0.8040830378405559  1.0000
  C   C11       1.0  0.9969088496414689  0.06402702693530694  0.19591696216665355  1.0000
  C   C12       1.0  0.5030911503104739  0.9359729725377772  0.6959169621702582  1.0000
  C   C13       1.0  0.8497909157416432  0.5082069003175769  0.3280776669437657  1.0000
  C   C14       1.0  0.6502090842102995  0.4917931004455729  0.8280776669473706  1.0000
  C   C15       1.0  0.15020908365952435  0.00820689993600199  0.171922333059839  1.0000
  C   C16       1.0  0.349790915190868  0.9917930995370822  0.6719223330634438  1.0000
  C   C17       1.0  0.6851722540246798  0.38586066725574586  0.3200914654262813  1.0000
  C   C18       1.0  0.814827745927263  0.6141393322173382  0.8200914654298861  1.0000
  C   C19       1.0  0.31482774707687067  0.8858606676373209  0.17990853457732345  1.0000
  C   C20       1.0  0.1851722534739046  0.11413933312582902  0.6799085345809283  1.0000
  C   C21       1.0  0.1914686707864554  0.6902823787218055  0.3112691413157168  1.0000
  C   C22       1.0  0.3085313297643198  0.30971762075127857  0.8112691413193216  1.0000
  C   C23       1.0  0.808531330315095  0.19028237963029634  0.18873085868788791  1.0000
  C   C24       1.0  0.6914686696368478  0.8097176211328535  0.6887308586914926  1.0000
  C   C25       1.0  0.9891499517574117  0.9654122160446715  0.32804881551036463  1.0000
  C   C26       1.0  0.5108500481945312  0.03458778342841261  0.8280488155139695  1.0000
  C   C27       1.0  0.010850049344138763  0.46541221566309665  0.1719511844932401  1.0000
  C   C28       1.0  0.48914995120663646  0.5345877838099875  0.6719511844968449  1.0000
  C   C29       1.0  0.07735466438563304  0.11165308499193385  0.35037956037442747  1.0000
  C   C30       1.0  0.4226453344647594  0.8883469157712159  0.8503795603780322  1.0000
  C   C31       1.0  0.9226453350155345  0.6116530840834431  0.1496204396291773  1.0000
  C   C32       1.0  0.5773546649364082  0.38834691538964106  0.649620439632782  1.0000
  C   C33       1.0  0.26719598208020984  0.8549043288135086  0.36255152339816993  1.0000
  C   C34       1.0  0.23280401847056537  0.1450956706595756  0.8625515234017745  1.0000
  C   C35       1.0  0.7328040173209577  0.3549043297219993  0.13744847660543486  1.0000
  C   C36       1.0  0.767195982630985  0.6450956710411505  0.6374484766090396  1.0000
  C   C37       1.0  0.43857357204216485  0.7584977187261426  0.3788238635163846  1.0000
  C   C38       1.0  0.061426426808227526  0.24150228074694155  0.8788238635199893  1.0000
  C   C39       1.0  0.5614264273590027  0.25849771963463336  0.12117613648722018  1.0000
  C   C40       1.0  0.93857357259294  0.7415022811285165  0.6211761364908249  1.0000
  C   C41       1.0  0.6035915686677462  0.8585692815842657  0.40041758703029534  1.0000
  C   C42       1.0  0.8964084312841967  0.1414307178888184  0.9004175870339002  1.0000
  C   C43       1.0  0.39640843073342136  0.3585692824927565  0.0995824129733094  1.0000
  C   C44       1.0  0.10359156981735387  0.6414307182703933  0.5995824129769142  1.0000
  C   C45       1.0  0.5139783513191577  0.8753760625559411  0.4356037610759888  1.0000
  C   C46       1.0  0.9860216486327852  0.12462393820720873  0.9356037610795936  1.0000
  C   C47       1.0  0.48602164978239276  0.3753760621743662  0.06439623892761595  1.0000
  C   C48       1.0  0.01397835076838247  0.6246239372987179  0.5643962389312207  1.0000
  C   C49       1.0  0.3366709295798826  0.021230507807419603  0.43186410784784013  1.0000
  C   C50       1.0  0.16332907097089264  0.9787694916656645  0.9318641078514448  1.0000
  C   C51       1.0  0.663329069821285  0.5212305081889945  0.06813589215576465  1.0000
  C   C52       1.0  0.8366709301306579  0.47876949128408963  0.5681358921593693  1.0000
  C   C53       1.0  0.3814736163211698  0.0934484920469673  0.3972529698273808  1.0000
  C   C54       1.0  0.11852638422960549  0.9065515087161825  0.8972529698309856  1.0000
  C   C55       1.0  0.618526383079998  0.5934484924285423  0.10274703017622398  1.0000
  C   C56       1.0  0.881473616871945  0.4065515083346076  0.6027470301798288  1.0000
  C   C57       1.0  0.037160462325783156  0.45098477895202316  0.4455869825127935  1.0000
  C   C58       1.0  0.4628395382249921  0.549015220521061  0.9455869825163982  1.0000
  C   C59       1.0  0.9628395387757672  0.950984779333598  0.05441301749081129  1.0000
  C   C60       1.0  0.5371604611761756  0.04901522013948607  0.5544130174944161  1.0000
  C   C61       1.0  0.8582733333231949  0.3092060568136486  0.4492895611859308  1.0000
  C   C62       1.0  0.641726666628748  0.6907939426594356  0.9492895611895354  1.0000
  C   C63       1.0  0.1417266660779727  0.8092060571952234  0.05071043881767405  1.0000
  C   C64       1.0  0.3582733344728026  0.19079394227786065  0.5507104388212788  1.0000
  C   C65       1.0  0.9565896473383265  0.5955599145571807  0.4675776674447133  1.0000
  C   C66       1.0  0.5434103526136163  0.4044400862059692  0.9675776674483181  1.0000
  C   C67       1.0  0.043410352062841044  0.0955599141756057  0.03242233255889147  1.0000
  C   C68       1.0  0.4565896467875513  0.9044400852974784  0.5324223325624963  1.0000
  C   C69       1.0  0.6844542809759906  0.3831768068599001  0.4727865074272485  1.0000
  C   C70       1.0  0.8155457189759522  0.6168231926131841  0.9727865074308534  1.0000
  C   C71       1.0  0.315545718425177  0.883176807241475  0.027213492576356257  1.0000
  C   C72       1.0  0.18445428212559825  0.11682319352167482  0.5272134925799611  1.0000
  N   N1        1.0  0.8228382494593006  0.37683859932331076  0.26441089176920274  1.0000
  N   N2        1.0  0.6771617504926423  0.6231614001497734  0.7644108917728075  1.0000
  N   N3        1.0  0.17716175164224982  0.8768385997048856  0.23558910823440202  1.0000
  N   N4        1.0  0.3228382489085254  0.12316139976819844  0.7355891082380068  1.0000
  N   N5        1.0  0.1345791731492352  0.8161061025292693  0.3363803665163793  1.0000
  N   N6        1.0  0.36542082570115714  0.18389389694381486  0.8363803665199842  1.0000
  N   N7        1.0  0.8654208262519324  0.31610610214769436  0.1636196334872255  1.0000
  N   N8        1.0  0.6345791737000105  0.6838938973253897  0.6636196334908303  1.0000
  N   N9        1.0  0.22873641196563269  0.018005427443928648  0.3726648525430546  1.0000
  N   N10       1.0  0.27126358858514255  0.9819945720291555  0.8726648525466594  1.0000
  N   N11       1.0  0.7712635891359179  0.5180054278255035  0.12733514746055016  1.0000
  N   N12       1.0  0.728736410816025  0.48199457293764625  0.627335147464155  1.0000
  N   N13       1.0  0.43457895617077413  0.5829953223777602  0.38193098372534323  1.0000
  N   N14       1.0  0.06542104438000108  0.4170046770953239  0.8819309837289481  1.0000
  N   N15       1.0  0.5654210449307763  0.08299532328625098  0.1180690162782615  1.0000
  N   N16       1.0  0.9345789550211665  0.9170046774768988  0.6180690162818663  1.0000
  N   N17       1.0  0.7571575413170678  0.5459232994477272  0.4823503980592399  1.0000
  N   N18       1.0  0.7428424586348751  0.45407670131542255  0.9823503980628446  1.0000
  N   N19       1.0  0.24284245808409982  0.04592329906615233  0.017649601944364855  1.0000
  N   N20       1.0  0.25715754076629255  0.9540767004069318  0.5176496019479696  1.0000
  O   O1        1.0  0.2750584910918878  0.49219454179602035  0.3694283825230692  1.0000
  O   O2        1.0  0.22494150945888744  0.5078054576770638  0.8694283825266739  1.0000
  O   O3        1.0  0.7249415083092798  0.9921945421775953  0.13057161748053556  1.0000
  O   O4        1.0  0.775058491642663  0.0078054572954888895  0.6305716174841404  1.0000
  O   O5        1.0  0.5930517881793687  0.5112625486139863  0.39836897237851204  1.0000
  O   O6        1.0  0.9069482117725741  0.4887374508590978  0.8983689723821168  1.0000
  O   O7        1.0  0.40694821122179897  0.011262549522477105  0.1016310276250927  1.0000
  O   O8        1.0  0.09305178932897627  0.9887374512406727  0.6016310276286975  1.0000
  O   O9        1.0  0.6072743530315512  0.035966666267876916  0.3890485300722795  1.0000
  O   O10       1.0  0.8927256469203917  0.9640333332052072  0.8890485300758844  1.0000
  O   O11       1.0  0.39272564636961643  0.5359666666494518  0.11095146993132521  1.0000
  O   O12       1.0  0.10727435418115876  0.464033334113698  0.61095146993493  1.0000
  O   O13       1.0  0.05010843720925834  0.736508292366379  0.4718206358067035  1.0000
  O   O14       1.0  0.4498915616411341  0.2634917071067051  0.9718206358103083  1.0000
  O   O15       1.0  0.9498915621919093  0.23650829198480408  0.028179364196901185  1.0000
  O   O16       1.0  0.5501084377600336  0.76349170748828  0.5281793642005059  1.0000
  O   O17       1.0  0.5072220008545428  0.3169249378008759  0.4825866002995573  1.0000
  O   O18       1.0  0.9927779990974  0.6830750629622738  0.982586600303162  1.0000
  O   O19       1.0  0.49277799854662474  0.8169249368923852  0.01741339970404747  1.0000
  O   O20       1.0  0.007222000303767599  0.183075062580699  0.5174133997076522  1.0000
  Cl  Cl1       1.0  0.48018439194771645  0.17031360766749215  0.2764643602296322  1.0000
  Cl  Cl2       1.0  0.019815606902675958  0.8296863930956577  0.776464360233237  1.0000
  Cl  Cl3       1.0  0.5198156074534511  0.6703136067590013  0.22353563977397253  1.0000
  Cl  Cl4       1.0  0.9801843924984917  0.32968639271408273  0.7235356397775773  1.0000
