data_image0
_chemical_formula_structural       H40C32N2O4BrI
_chemical_formula_sum              "H40 C32 N2 O4 Br1 I1"
_cell_length_a       5.557304228229367
_cell_length_b       8.154926062494988
_cell_length_c       17.53650871877751
_cell_angle_alpha    79.5058894722942
_cell_angle_beta     82.98586186486646
_cell_angle_gamma    89.94703976013915

_space_group_name_H-M_alt    "P 1"
_space_group_IT_number       1

loop_
  _space_group_symop_operation_xyz
  'x, y, z'

loop_
  _atom_site_type_symbol
  _atom_site_label
  _atom_site_symmetry_multiplicity
  _atom_site_fract_x
  _atom_site_fract_y
  _atom_site_fract_z
  _atom_site_occupancy
  H   H1        1.0  0.4279397230421703  0.7878030190222592  0.4716751729131624  1.0000
  H   H2        1.0  0.2096784076529626  0.9197542251288786  0.3642220931730268  1.0000
  H   H3        1.0  0.6703402297557138  0.09101730302180262  0.5302558548081436  1.0000
  H   H4        1.0  0.8874812708834436  0.9602798046253984  0.6376793666480352  1.0000
  H   H5        1.0  0.1787714512655144  0.41628163045411437  0.8021195180395189  1.0000
  H   H6        1.0  0.38277147269163564  0.2576942889518078  0.7810970711044415  1.0000
  H   H7        1.0  0.8532055768912662  0.21848283487180298  0.8549482942510095  1.0000
  H   H8        1.0  0.34139147859126556  0.10633948855743713  0.9061467794392077  1.0000
  H   H9        1.0  0.07000169720357212  0.003940959303820793  0.9522397597128337  1.0000
  H   H10       1.0  0.18010123348469287  0.3775862766810708  0.943298576435068  1.0000
  H   H11       1.0  0.17326560806934527  0.21800643874333483  0.026544897442834475  1.0000
  H   H12       1.0  0.9025077557006597  0.2721380531286392  0.9849535882185899  1.0000
  H   H13       1.0  0.16009801127592996  0.9602675793724864  0.7835340374877342  1.0000
  H   H14       1.0  0.8862769608500127  0.04786418903003108  0.7569409297144055  1.0000
  H   H15       1.0  0.9620097292482483  0.7896774112135089  0.8994587591426392  1.0000
  H   H16       1.0  0.7156829361970362  0.9243803862421217  0.906531313697792  1.0000
  H   H17       1.0  0.8129387281429379  0.7198825552343017  0.7759663765697347  1.0000
  H   H18       1.0  0.5582266033197061  0.8419930532293946  0.7947217667225625  1.0000
  H   H19       1.0  0.7043307896767182  0.5238898762486904  0.90157791623186  1.0000
  H   H20       1.0  0.45238366860556306  0.5448032840991611  0.8482113589228661  1.0000
  H   H21       1.0  0.4590638470484541  0.6502707098142073  0.9280739303897737  1.0000
  H   H22       1.0  0.6764184016110264  0.5777006260072309  0.5510301648112986  1.0000
  H   H23       1.0  0.4464990539867092  0.28176506819505814  0.47415760778082416  1.0000
  H   H24       1.0  0.03393490418150815  0.4771483803314262  0.21499417868370016  1.0000
  H   H25       1.0  0.7504567761061317  0.5673541049420704  0.24101817421292135  1.0000
  H   H26       1.0  0.9370444010741439  0.8449519780969657  0.2197817737260608  1.0000
  H   H27       1.0  0.7901304373980157  0.7260924987342675  0.11177082268088086  1.0000
  H   H28       1.0  0.0018266087531921033  0.8907773551796438  0.07940288901832883  1.0000
  H   H29       1.0  0.1314943195360421  0.518896172236785  0.09046995386917968  1.0000
  H   H30       1.0  0.3271878434598889  0.6919520230244074  0.049536069348034  1.0000
  H   H31       1.0  0.06851368362000713  0.6535861693755807  0.004920324513361691  1.0000
  H   H32       1.0  0.41376130938448946  0.676341446891528  0.17764445702536147  1.0000
  H   H33       1.0  0.3415277377416896  0.7665784463715901  0.26048582229966805  1.0000
  H   H34       1.0  0.618864702043758  0.9411093608491057  0.15690587401612263  1.0000
  H   H35       1.0  0.4032480618337568  0.9575293921425803  0.09105545296235963  1.0000
  H   H36       1.0  0.3247180217133395  0.08389157734666614  0.24667626907502746  1.0000
  H   H37       1.0  0.1432008024344282  0.128103115394332  0.1704920787564401  1.0000
  H   H38       1.0  0.6844337934808199  0.2282980993338597  0.15738040556925867  1.0000
  H   H39       1.0  0.44056771034265957  0.36494510290952425  0.16923413103133383  1.0000
  H   H40       1.0  0.4984457282262027  0.2816117972208674  0.08176633900213433  1.0000
  C   C1        1.0  0.17322926538719474  0.8663238297137178  0.5621247667221855  1.0000
  C   C2        1.0  0.2633071001108487  0.8544110456787195  0.485409109816001  1.0000
  C   C3        1.0  0.13873738518814108  0.9284487297852965  0.42398179354531407  1.0000
  C   C4        1.0  0.9262114737217105  0.013600406152876287  0.4401237058900626  1.0000
  C   C5        1.0  0.8358185002406746  0.025248183084225644  0.516637887647531  1.0000
  C   C6        1.0  0.9602279441295201  0.9513706530228834  0.5781231440780237  1.0000
  C   C7        1.0  0.2954338126844249  0.2756435672729391  0.6420020076552196  1.0000
  C   C8        1.0  0.9414029788698692  0.4105340273556102  0.6765469604924191  1.0000
  C   C9        1.0  0.19220517821732166  0.29437342806436406  0.7838108800954612  1.0000
  C   C10       1.0  0.03200089276541614  0.1634581741359791  0.8421838807123058  1.0000
  C   C11       1.0  0.1447297061921632  0.1241628508499335  0.9191604504640812  1.0000
  C   C12       1.0  0.09835951156162866  0.25544788753266906  0.9709519513511675  1.0000
  C   C13       1.0  0.987337583670773  0.008897190038891811  0.8073122823336416  1.0000
  C   C14       1.0  0.8407692379575948  0.8697550583518421  0.8643938337129647  1.0000
  C   C15       1.0  0.6945141332490778  0.7626338937257172  0.8231961169961951  1.0000
  C   C16       1.0  0.5703256645489044  0.6124724450303454  0.8782404636111294  1.0000
  C   C17       1.0  0.19205809485369255  0.347241443495335  0.5688923346865612  1.0000
  C   C18       1.0  0.9780263193694376  0.4285118469989476  0.5897018235506636  1.0000
  C   C19       1.0  0.8403018739285002  0.5126931744153708  0.5343395103304209  1.0000
  C   C20       1.0  0.9297994186059073  0.5103602372288213  0.4569553780925956  1.0000
  C   C21       1.0  0.8312425194153052  0.5867098782142468  0.38353112184584126  1.0000
  C   C22       1.0  0.18330929189388123  0.44893388270617557  0.34957765628562715  1.0000
  C   C23       1.0  0.14317228022528264  0.42831609732249376  0.4362670169601758  1.0000
  C   C24       1.0  0.28139213725311035  0.3446001882804013  0.49141841090825394  1.0000
  C   C25       1.0  0.9473689335321639  0.5785101506674014  0.24096997639548584  1.0000
  C   C26       1.0  0.04138247632208037  0.7489634906126025  0.19399908407188568  1.0000
  C   C27       1.0  0.9828907098805273  0.7599369068342272  0.10956734550315303  1.0000
  C   C28       1.0  0.13614330358398427  0.6502576050075191  0.06141048211137936  1.0000
  C   C29       1.0  0.31134137232847364  0.7783217609226096  0.1988463973236412  1.0000
  C   C30       1.0  0.42246641279069336  0.9450258011332702  0.15373361633490976  1.0000
  C   C31       1.0  0.33112394798836886  0.10266664728016955  0.18263804185470156  1.0000
  C   C32       1.0  0.49639116263799166  0.25334702920508617  0.1456250947342344  1.0000
  N   N1        1.0  0.13764241454421242  0.3189854238106834  0.7035431363762038  1.0000
  N   N2        1.0  0.9919771849565905  0.5461703784832342  0.3222629476912397  1.0000
  O   O1        1.0  0.7783140869040837  0.46378405895234526  0.7183475727468451  1.0000
  O   O2        1.0  0.481628477466555  0.19646510871073583  0.648915359757684  1.0000
  O   O3        1.0  0.6465710803785905  0.6674097214798752  0.3759411006789184  1.0000
  O   O4        1.0  0.34447924765398347  0.39335979790009246  0.30812721562216405  1.0000
  Br  Br1       1.0  0.7580263222041318  0.1191276631644866  0.35671325530533393  1.0000
  I   I1        1.0  0.3609890860912186  0.7512342554357433  0.6539767348822272  1.0000
