data_image0
_chemical_formula_structural       H84C100P4Br4I12
_chemical_formula_sum              "H84 C100 P4 Br4 I12"
_cell_length_a       9.907983906294957
_cell_length_b       18.049715517955878
_cell_length_c       13.78111200813125
_cell_angle_alpha    90.0
_cell_angle_beta     90.36910355003843
_cell_angle_gamma    90.0

_space_group_name_H-M_alt    "P 1"
_space_group_IT_number       1

loop_
  _space_group_symop_operation_xyz
  'x, y, z'

loop_
  _atom_site_type_symbol
  _atom_site_label
  _atom_site_symmetry_multiplicity
  _atom_site_fract_x
  _atom_site_fract_y
  _atom_site_fract_z
  _atom_site_occupancy
  H   H1        1.0  0.4252904630184169  0.102138562691806  0.5104080133124574  1.0000
  H   H2        1.0  0.42529046292430744  0.39786143736481877  0.010408013035469591  1.0000
  H   H3        1.0  0.5747095371778868  0.8978614374214436  0.48959198716172025  1.0000
  H   H4        1.0  0.5747095372680392  0.6021385621944054  0.9895919867130645  1.0000
  H   H5        1.0  0.8916138519797263  0.1192120489577491  0.02341715177213721  1.0000
  H   H6        1.0  0.8916138520698788  0.38078795109887564  0.5234171513234813  1.0000
  H   H7        1.0  0.10838614821657735  0.8807879511555005  0.9765828487020404  1.0000
  H   H8        1.0  0.10838614812246787  0.6192120490143739  0.4765828484250526  1.0000
  H   H9        1.0  0.07017195704518102  0.1896857502598324  0.10811658509328904  1.0000
  H   H10       1.0  0.07017195713533342  0.31031424979679234  0.6081165846446333  1.0000
  H   H11       1.0  0.9298280431511227  0.8103142498534172  0.8918834153808886  1.0000
  H   H12       1.0  0.929828043057013  0.6896857503164572  0.39188341510390085  1.0000
  H   H13       1.0  0.28148698985805426  0.22276300565513593  0.022982322512618846  1.0000
  H   H14       1.0  0.2814869899521637  0.27723699440148886  0.5229823227896067  1.0000
  H   H15       1.0  0.7185130103342924  0.7772369944581137  0.9770176772359151  1.0000
  H   H16       1.0  0.7185130102401829  0.7227630057117608  0.4770176769589274  1.0000
  H   H17       1.0  0.3116227213532252  0.18773223304428832  0.8493450229251347  1.0000
  H   H18       1.0  0.3116227212591158  0.3122677664583111  0.34934502264814693  1.0000
  H   H19       1.0  0.688377277829821  0.8122677665149359  0.15065497682156961  1.0000
  H   H20       1.0  0.6883772779239307  0.6877322331009131  0.6506549770985574  1.0000
  H   H21       1.0  0.12919702865533966  0.12326743641951725  0.7602272437384844  1.0000
  H   H22       1.0  0.12919702856123014  0.37673256363710755  0.2602272434614966  1.0000
  H   H23       1.0  0.8708029705277066  0.8767325636937323  0.23977275600821993  1.0000
  H   H24       1.0  0.8708029706218162  0.623267436476142  0.7397727562852078  1.0000
  H   H25       1.0  0.6964684137729654  0.9431666761209956  0.775891394964817  1.0000
  H   H26       1.0  0.696468413682813  0.5568333240488788  0.27589139541347274  1.0000
  H   H27       1.0  0.3035315864193813  0.05683332399225394  0.2241086047837171  1.0000
  H   H28       1.0  0.30353158651349077  0.4431666760643708  0.724108605060705  1.0000
  H   H29       1.0  0.7464737954148197  0.8231244523061916  0.7005968686687967  1.0000
  H   H30       1.0  0.7464737953207102  0.6768755473096574  0.2005968683918089  1.0000
  H   H31       1.0  0.25352620477752685  0.17687554780705791  0.2994031310797373  1.0000
  H   H32       1.0  0.2535262048716363  0.3231244522495669  0.7994031313567251  1.0000
  H   H33       1.0  0.9842882714978205  0.7872282533131686  0.6658400379177704  1.0000
  H   H34       1.0  0.9842882714037109  0.7127717468567057  0.16584003764078248  1.0000
  H   H35       1.0  0.01571172869452611  0.21277174680008096  0.33415996183076374  1.0000
  H   H36       1.0  0.01571172878863561  0.28722825325654383  0.8341599621077515  1.0000
  H   H37       1.0  0.1743178325951102  0.872289786746903  0.7120345333803623  1.0000
  H   H38       1.0  0.17431783250495778  0.6277102134229712  0.21203453382901802  1.0000
  H   H39       1.0  0.8256821665879361  0.12771021336634647  0.2879654663663421  1.0000
  H   H40       1.0  0.8256821666820456  0.37228978669027835  0.7879654666433299  1.0000
  H   H41       1.0  0.12471592514443448  0.9929664000615643  0.7880139189508523  1.0000
  H   H42       1.0  0.12471592505032499  0.5070335995542848  0.28801391867386444  1.0000
  H   H43       1.0  0.8752840750479122  0.007033600051685332  0.2119860807976818  1.0000
  H   H44       1.0  0.8752840751420216  0.4929664000049394  0.7119860810746695  1.0000
  H   H45       1.0  0.8330085766378796  0.22631788162734554  0.7864198714163974  1.0000
  H   H46       1.0  0.83300857654377  0.27368211842927925  0.2864198711394096  1.0000
  H   H47       1.0  0.16699142355842414  0.7736821179318787  0.21358012905778023  1.0000
  H   H48       1.0  0.16699142364857658  0.7263178816839704  0.7135801286091245  1.0000
  H   H49       1.0  0.7869107362567538  0.29738183710764016  0.6376173790503493  1.0000
  H   H50       1.0  0.7869107361626443  0.2026181629489846  0.13761737877336155  1.0000
  H   H51       1.0  0.21308926393954988  0.7026181630056094  0.3623826214238283  1.0000
  H   H52       1.0  0.21308926402970232  0.7973818371642649  0.8623826209751725  1.0000
  H   H53       1.0  0.761789788470428  0.23225117791079455  0.4785127511395869  1.0000
  H   H54       1.0  0.7617897885645375  0.2677488221458302  0.9785127514165748  1.0000
  H   H55       1.0  0.23821021172191864  0.767748822202455  0.5214872486089471  1.0000
  H   H56       1.0  0.23821021163176623  0.7322511779674193  0.02148724905760289  1.0000
  H   H57       1.0  0.7776276618398876  0.09498253300970341  0.4714645749678954  1.0000
  H   H58       1.0  0.777627661933997  0.4050174670469214  0.9714645752448833  1.0000
  H   H59       1.0  0.222372338352459  0.9050174671035461  0.5285354247806385  1.0000
  H   H60       1.0  0.2223723382623066  0.5949825330663282  0.028535425229294396  1.0000
  H   H61       1.0  0.8203364626046271  0.022581027916730202  0.6198366925864368  1.0000
  H   H62       1.0  0.8203364625105178  0.47741897213989454  0.11983669230944896  1.0000
  H   H63       1.0  0.1796635375916765  0.9774189721965193  0.38016330788774083  1.0000
  H   H64       1.0  0.17966353768182888  0.522581027973355  0.8801633074390851  1.0000
  H   H65       1.0  0.7941557181914696  0.9665189139765281  0.9775447825416834  1.0000
  H   H66       1.0  0.7941557180973601  0.5334810861933462  0.4775447822646957  1.0000
  H   H67       1.0  0.20584428200087707  0.03348108613672153  0.022455217206850564  1.0000
  H   H68       1.0  0.2058442820949866  0.46651891391990324  0.5224552174838384  1.0000
  H   H69       1.0  0.6457184783464479  0.9844039554154836  0.12016267641472934  1.0000
  H   H70       1.0  0.6457184784405574  0.5155960447543907  0.6201626766917172  1.0000
  H   H71       1.0  0.3542815218458987  0.015596044697765975  0.8798373233338047  1.0000
  H   H72       1.0  0.35428152175574623  0.48440395535885883  0.3798373237824605  1.0000
  H   H73       1.0  0.5047431032650858  0.09807062212360389  0.13329704755833993  1.0000
  H   H74       1.0  0.5047431033591953  0.4019293779330209  0.6332970478353276  1.0000
  H   H75       1.0  0.49525689591796057  0.9019293779896458  0.8667029521883646  1.0000
  H   H76       1.0  0.49525689683710844  0.5980706221802287  0.36670295263884994  1.0000
  H   H77       1.0  0.4977355512267565  0.18868737330579824  0.9967870274173773  1.0000
  H   H78       1.0  0.4977355521459043  0.31131262619680117  0.49678702786786283  1.0000
  H   H79       1.0  0.5022644479562899  0.8113126262534259  0.00321297232932702  1.0000
  H   H80       1.0  0.5022644480503994  0.688687373362423  0.5032129726063148  1.0000
  H   H81       1.0  0.6368544233361284  0.17013838511443663  0.8524846640275496  1.0000
  H   H82       1.0  0.636854423245976  0.3298616143881628  0.3524846644762055  1.0000
  H   H83       1.0  0.3631455768562182  0.8298616144447876  0.14751533572098438  1.0000
  H   H84       1.0  0.3631455769463706  0.6701383851710614  0.6475153352723286  1.0000
  C   C1        1.0  0.3748637452786298  0.09846537737572472  0.5808080917271956  1.0000
  C   C2        1.0  0.3748637451884774  0.40153462268090007  0.08080809217585139  1.0000
  C   C3        1.0  0.6251362549137167  0.9015346227375248  0.41919190802133843  1.0000
  C   C4        1.0  0.6251362550078262  0.5984653774323495  0.9191919082983263  1.0000
  C   C5        1.0  0.9992114435007963  0.11497248684809289  0.886705361481163  1.0000
  C   C6        1.0  0.9992114434066867  0.3850275132085319  0.3867053612041753  1.0000
  C   C7        1.0  0.0007885566955074894  0.8850275132651567  0.11329463899301452  1.0000
  C   C8        1.0  0.0007885567856598992  0.6149724869047177  0.6132946385443587  1.0000
  C   C9        1.0  0.9831658929536543  0.13410867210577146  0.984816207045269  1.0000
  C   C10       1.0  0.983165892863502  0.36589132795085333  0.4848162074939247  1.0000
  C   C11       1.0  0.016834107238692143  0.865891328007478  0.015183792703265142  1.0000
  C   C12       1.0  0.01683410733280164  0.6341086721623963  0.515183792980253  1.0000
  C   C13       1.0  0.08440683422687228  0.17337873535385268  0.03291486115335555  1.0000
  C   C14       1.0  0.0844068343170247  0.32662126470277214  0.5329148607046997  1.0000
  C   C15       1.0  0.9155931659694315  0.8266212647593969  0.9670851393208222  1.0000
  C   C16       1.0  0.9155931658753219  0.6733787354104775  0.46708513904383425  1.0000
  C   C17       1.0  0.20278891996102621  0.19207741731724698  0.9846277901118645  1.0000
  C   C18       1.0  0.2027889198708738  0.3079225827393778  0.48462779056052036  1.0000
  C   C19       1.0  0.7972110802313204  0.8079225827960026  0.015372209636669442  1.0000
  C   C20       1.0  0.7972110803254299  0.6920774173738717  0.5153722099136572  1.0000
  C   C21       1.0  0.21968182348477533  0.17256758295727143  0.8874437033775523  1.0000
  C   C22       1.0  0.2196818233906658  0.3274324170993534  0.3874437031005645  1.0000
  C   C23       1.0  0.7803181767115284  0.8274324171559782  0.11255629709662539  1.0000
  C   C24       1.0  0.7803181768016808  0.6725675830138962  0.6125562966479696  1.0000
  C   C25       1.0  0.11760736077021834  0.13519827099614928  0.8374833339571279  1.0000
  C   C26       1.0  0.11760736067610886  0.3648017290604755  0.33748333368014016  1.0000
  C   C27       1.0  0.8823926384167851  0.8648017291171003  0.16251666651522  1.0000
  C   C28       1.0  0.8823926385069375  0.635198271052774  0.6625166660665642  1.0000
  C   C29       1.0  0.9075606096357216  0.9758214046353401  0.7874569766496274  1.0000
  C   C30       1.0  0.9075606095416121  0.5241785955345343  0.28745697637263967  1.0000
  C   C31       1.0  0.0924393905605821  0.02417859547790945  0.21254302382455018  1.0000
  C   C32       1.0  0.0924393906507345  0.47582140457871536  0.7125430233758944  1.0000
  C   C33       1.0  0.8012842560833018  0.9274298425006855  0.7633940775194284  1.0000
  C   C34       1.0  0.8012842559891923  0.5725701576691887  0.2633940772424407  1.0000
  C   C35       1.0  0.19871574411300189  0.07257015761256398  0.23660592295474914  1.0000
  C   C36       1.0  0.19871574420315427  0.4274298424440608  0.7366059225060935  1.0000
  C   C37       1.0  0.8300164953612554  0.8594967225143788  0.7204088484280214  1.0000
  C   C38       1.0  0.8300164952671459  0.6405032771014703  0.22040884815103357  1.0000
  C   C39       1.0  0.1699835048310913  0.14050327704484541  0.27959115132051265  1.0000
  C   C40       1.0  0.16998350391590056  0.359496722457754  0.7795911515956707  1.0000
  C   C41       1.0  0.9636926294831709  0.8399260273613948  0.7013403507437919  1.0000
  C   C42       1.0  0.9636926304023188  0.6600739722544543  0.20134035119427743  1.0000
  C   C43       1.0  0.03630736969987552  0.16007397219782946  0.2986596490029125  1.0000
  C   C44       1.0  0.036307369793985016  0.33992602785879533  0.7986596492799003  1.0000
  C   C45       1.0  0.0696485680143265  0.8873859515440122  0.7267662524134311  1.0000
  C   C46       1.0  0.069648567920217  0.6126140486258621  0.22676625213644322  1.0000
  C   C47       1.0  0.930351432181977  0.11261404856923732  0.27323374806074663  1.0000
  C   C48       1.0  0.9303514322721296  0.38738595148738747  0.7732337476120908  1.0000
  C   C49       1.0  0.0419246379728029  0.9556613506091141  0.7697751706450237  1.0000
  C   C50       1.0  0.041924637878693403  0.5443386490067349  0.26977517036803594  1.0000
  C   C51       1.0  0.9580753612102435  0.04433864950413543  0.2302248291016806  1.0000
  C   C52       1.0  0.9580753613043528  0.4556613505524894  0.7302248293786685  1.0000
  C   C53       1.0  0.8298742497692507  0.1196777903702183  0.7134786030580955  1.0000
  C   C54       1.0  0.8298742496751411  0.3803222096864065  0.21347860278110764  1.0000
  C   C55       1.0  0.17012575042705308  0.8803222097430312  0.2865213974160822  1.0000
  C   C56       1.0  0.1701257505172055  0.6196777898728177  0.7865213969674264  1.0000
  C   C57       1.0  0.8221856900560465  0.1972930524283017  0.7175466289642449  1.0000
  C   C58       1.0  0.8221856899658941  0.30270694762832306  0.21754662941290065  1.0000
  C   C59       1.0  0.17781431013630014  0.8027069476849479  0.28245337078428917  1.0000
  C   C60       1.0  0.17781431023040964  0.6972930524849265  0.782453371061277  1.0000
  C   C61       1.0  0.7977042720779314  0.23748544323237344  0.6331059994742032  1.0000
  C   C62       1.0  0.7977042719838219  0.262514556270226  0.13310599919721539  1.0000
  C   C63       1.0  0.20229572811837232  0.7625145563268507  0.36689400099997443  1.0000
  C   C64       1.0  0.2022957282085247  0.7374854432889981  0.8668940005513186  1.0000
  C   C65       1.0  0.7831873687441923  0.20093980519482146  0.5444391574611405  1.0000
  C   C66       1.0  0.7831873686500828  0.2990601948618033  0.04443915718415261  1.0000
  C   C67       1.0  0.21681263145211138  0.7990601949184281  0.45556084301303723  1.0000
  C   C68       1.0  0.21681263154226382  0.7009398052514462  0.9555608425643813  1.0000
  C   C69       1.0  0.7914453659105518  0.12382329282567607  0.5402178688716751  1.0000
  C   C70       1.0  0.7914453658164422  0.3761767066769234  0.04021786859468732  1.0000
  C   C71       1.0  0.2085546342817948  0.8761767067335482  0.4597821308768589  1.0000
  C   C72       1.0  0.2085546343759043  0.6238232928823009  0.9597821311538467  1.0000
  C   C73       1.0  0.8139837946272175  0.08275405440678986  0.624431123023488  1.0000
  C   C74       1.0  0.8139837945370652  0.4172459456498349  0.1244311234721438  1.0000
  C   C75       1.0  0.18601620556512904  0.9172459457064598  0.375568876725046  1.0000
  C   C76       1.0  0.18601620565923857  0.5827540544634147  0.8755688770020338  1.0000
  C   C77       1.0  0.725983264128464  0.06723658712475042  0.9059446331431446  1.0000
  C   C78       1.0  0.7259832640383117  0.43276341293187437  0.4059446335918004  1.0000
  C   C79       1.0  0.27401673606388255  0.9327634129884992  0.09405536660538938  1.0000
  C   C80       1.0  0.27401673615799205  0.5672365866273499  0.5940553668823773  1.0000
  C   C81       1.0  0.7274747436442491  0.014509398762516286  0.9811105204587303  1.0000
  C   C82       1.0  0.7274747435501397  0.4854906012941085  0.4811105201817425  1.0000
  C   C83       1.0  0.2725252565520545  0.9854906013507334  0.018889480015447293  1.0000
  C   C84       1.0  0.2725252566422069  0.5145093982651158  0.5188894795667914  1.0000
  C   C85       1.0  0.6451680548849998  0.0250094567723759  0.061639121922211104  1.0000
  C   C86       1.0  0.6451680549751523  0.47499054328424883  0.5616391214735553  1.0000
  C   C87       1.0  0.3548319443020036  0.9749905433408736  0.9383608785501367  1.0000
  C   C88       1.0  0.3548319442078941  0.5250094568290007  0.438360878273149  1.0000
  C   C89       1.0  0.5636929995166959  0.08801201096048672  0.0681038176617111  1.0000
  C   C90       1.0  0.5636929996108053  0.41198798909613804  0.5681038179386989  1.0000
  C   C91       1.0  0.43630700067565076  0.9119879891527628  0.931896182086823  1.0000
  C   C92       1.0  0.4363070005854983  0.5880120110171115  0.43189618253547873  1.0000
  C   C93       1.0  0.5597548835004444  0.13903905839975328  0.9919347905451524  1.0000
  C   C94       1.0  0.5597548834102921  0.3609609416568715  0.4919347909938083  1.0000
  C   C95       1.0  0.440245116691902  0.8609609417134962  0.008065209203381525  1.0000
  C   C96       1.0  0.44024511678205447  0.639039058456378  0.5080652087547257  1.0000
  C   C97       1.0  0.6399566938338036  0.12889195498320358  0.9103330219366927  1.0000
  C   C98       1.0  0.6399566937436512  0.3711080450734212  0.41033302238534863  1.0000
  C   C99       1.0  0.3600433063585431  0.871108045130046  0.08966697781184123  1.0000
  C   C100      1.0  0.36004330645265253  0.6288919550398283  0.5896669780888291  1.0000
  P   P1        1.0  0.8643186334021132  0.06834324722585446  0.8226968480927563  1.0000
  P   P2        1.0  0.8643186333080037  0.4316567528307703  0.32269684781576863  1.0000
  P   P3        1.0  0.13568136679419027  0.9316567528873951  0.17730315238142125  1.0000
  P   P4        1.0  0.1356813668843427  0.5683432472824793  0.6773031519327654  1.0000
  Br  Br1       1.0  0.4631346021337828  0.8168383997705088  0.683417349420961  1.0000
  Br  Br2       1.0  0.4631346020436305  0.6831616003993655  0.18341734986961672  1.0000
  Br  Br3       1.0  0.5368653980585638  0.18316160034274073  0.31658265032757305  1.0000
  Br  Br4       1.0  0.5368653981526732  0.31683839971388406  0.8165826506045608  1.0000
  I   I1        1.0  0.4402878704114345  0.1923091134897346  0.6682232431756467  1.0000
  I   I2        1.0  0.4402878703173251  0.30769088656689025  0.16822324289865892  1.0000
  I   I3        1.0  0.5597121297848692  0.8076908860694896  0.33177675729853084  1.0000
  I   I4        1.0  0.5597121298750216  0.6923091135463594  0.8317767568498751  1.0000
  I   I5        1.0  0.1602217446998085  0.10075327271451379  0.5493992343399825  1.0000
  I   I6        1.0  0.16022174460965605  0.399246727342111  0.04939923478863825  1.0000
  I   I7        1.0  0.8397782554925383  0.8992467273987358  0.4506007654085516  1.0000
  I   I8        1.0  0.8397782555866475  0.6007532727711385  0.9506007656855393  1.0000
  I   I9        1.0  0.42918208746310255  0.991033147985359  0.6422853625212898  1.0000
  I   I10       1.0  0.42918208837829325  0.5089668521845152  0.14228536224613159  1.0000
  I   I11       1.0  0.5708179117239008  0.008966852127890454  0.3577146379510583  1.0000
  I   I12       1.0  0.5708179118140533  0.4910331479287343  0.8577146375024024  1.0000
