data_image0
_chemical_formula_structural       H84C100P4I16
_chemical_formula_sum              "H84 C100 P4 I16"
_cell_length_a       9.946460478246163
_cell_length_b       18.49872732764135
_cell_length_c       13.77845304422231
_cell_angle_alpha    90.0
_cell_angle_beta     89.94246963961494
_cell_angle_gamma    90.0

_space_group_name_H-M_alt    "P 1"
_space_group_IT_number       1

loop_
  _space_group_symop_operation_xyz
  'x, y, z'

loop_
  _atom_site_type_symbol
  _atom_site_label
  _atom_site_symmetry_multiplicity
  _atom_site_fract_x
  _atom_site_fract_y
  _atom_site_fract_z
  _atom_site_occupancy
  H   H1        1.0  0.4211627273135415  0.10346838980322684  0.9954467929365817  1.0000
  H   H2        1.0  0.4211627264790134  0.3965316105308137  0.4954467928592686  1.0000
  H   H3        1.0  0.5788372731774942  0.8965316103242765  0.004553206593248015  1.0000
  H   H4        1.0  0.5788372730066454  0.6034683895966896  0.5045532066739  1.0000
  H   H5        1.0  0.8718557797617595  0.0017881986914079096  0.2905613713904746  1.0000
  H   H6        1.0  0.8718557805926718  0.49821180164263257  0.7905613707420243  1.0000
  H   H7        1.0  0.12814421972751525  0.9982118014360953  0.7094386288684575  1.0000
  H   H8        1.0  0.12814421989836397  0.5017881984848708  0.20943862878780553  1.0000
  H   H9        1.0  0.8148273329811198  0.12018220284148962  0.21883076297763618  1.0000
  H   H10       1.0  0.8148273338156479  0.37981779695197315  0.7188307630549493  1.0000
  H   H11       1.0  0.18517266650453915  0.8798177972860137  0.7811692365555324  1.0000
  H   H12       1.0  0.1851726666753879  0.6201822026349525  0.28116923647488046  1.0000
  H   H13       1.0  0.9990522095371448  0.20607532791208827  0.1727562192178587  1.0000
  H   H14       1.0  0.9990522093626801  0.29392467242195225  0.6727562185727471  1.0000
  H   H15       1.0  0.0009477909575068415  0.7939246722154151  0.8272437810377345  1.0000
  H   H16       1.0  0.0009477901229788052  0.706075327705551  0.3272437809604215  1.0000
  H   H17       1.0  0.23831145347103733  0.17368773230140197  0.20377657641503927  1.0000
  H   H18       1.0  0.23831145330018857  0.3263122674920608  0.7037765764956913  1.0000
  H   H19       1.0  0.7616885470236142  0.8263122672855235  0.7962234238405541  1.0000
  H   H20       1.0  0.7616885461890861  0.6736877326354426  0.2962234237632409  1.0000
  H   H21       1.0  0.29567043733413156  0.0560166789664294  0.2745433508796923  1.0000
  H   H22       1.0  0.29567043716328284  0.44398332136761115  0.7745433509603443  1.0000
  H   H23       1.0  0.70432956316052  0.943983321161074  0.7254566493759009  1.0000
  H   H24       1.0  0.7043295633313688  0.5560166787598921  0.22545664929524895  1.0000
  H   H25       1.0  0.8761824096767749  0.8736069132632884  0.2570155634405162  1.0000
  H   H26       1.0  0.876182409505926  0.6263930866576777  0.7570155635211682  1.0000
  H   H27       1.0  0.12381759081787679  0.12639308686421494  0.7429844368150772  1.0000
  H   H28       1.0  0.12381758998334873  0.37360691292924786  0.24298443673776404  1.0000
  H   H29       1.0  0.6962270927672265  0.8073025898211422  0.3430223214615608  1.0000
  H   H30       1.0  0.696227092592762  0.6926974100998239  0.8430223208164492  1.0000
  H   H31       1.0  0.303772907727425  0.1926974103063611  0.6569776787940326  1.0000
  H   H32       1.0  0.30377290789827377  0.3073025900276794  0.15697767871338056  1.0000
  H   H33       1.0  0.7230544005296875  0.7744292397128169  0.5172904922568436  1.0000
  H   H34       1.0  0.7230543996987753  0.7255707602081493  0.01729049290529415  1.0000
  H   H35       1.0  0.2769455999613482  0.22557075987410874  0.4827095072729861  1.0000
  H   H36       1.0  0.27694559979049943  0.2744292399193541  0.982709507353638  1.0000
  H   H37       1.0  0.9289037556941317  0.8111668751167683  0.6064117934153874  1.0000
  H   H38       1.0  0.9289037548596037  0.6888331248041978  0.1064117933380743  1.0000
  H   H39       1.0  0.07109624479690403  0.18883312501073507  0.3935882061144423  1.0000
  H   H40       1.0  0.0710962446260553  0.31116687532330545  0.8935882061950944  1.0000
  H   H41       1.0  0.10554967449566649  0.8821709867367795  0.5240516266956947  1.0000
  H   H42       1.0  0.10554967466651526  0.6178290131841866  0.024051626615042662  1.0000
  H   H43       1.0  0.8944503249899926  0.11782901339072374  0.47594837283747393  1.0000
  H   H44       1.0  0.8944503248191438  0.3821709869433168  0.9759483729181259  1.0000
  H   H45       1.0  0.36479662771578103  0.8349545007304762  0.3549167484323358  1.0000
  H   H46       1.0  0.3647966275449323  0.6650454991904898  0.8549167485129877  1.0000
  H   H47       1.0  0.6352033727788705  0.16504549939702712  0.6450832518232575  1.0000
  H   H48       1.0  0.6352033719443425  0.3349545009370134  0.1450832517459444  1.0000
  H   H49       1.0  0.5068704593265887  0.8202931229396516  0.4992138006465997  1.0000
  H   H50       1.0  0.5068704591557399  0.6797068775218922  0.9992138007272516  1.0000
  H   H51       1.0  0.49312954116806285  0.1797068771878517  0.5007861996089936  1.0000
  H   H52       1.0  0.4931295413389116  0.3202931226056111  0.0007861995283415998  1.0000
  H   H53       1.0  0.497345764784  0.9102318582122113  0.6339269084622328  1.0000
  H   H54       1.0  0.4973457649548487  0.5897681417087548  0.1339269083815809  1.0000
  H   H55       1.0  0.5026542347052748  0.08976814191529205  0.3660730917966994  1.0000
  H   H56       1.0  0.502654234534426  0.41023185787817074  0.8660730918773513  1.0000
  H   H57       1.0  0.35024920917805746  0.018508727867370303  0.6195884138021025  1.0000
  H   H58       1.0  0.35024920934890624  0.48149127192609253  0.11958841372145046  1.0000
  H   H59       1.0  0.6497507903112173  0.9814912717195553  0.3804115864568297  1.0000
  H   H60       1.0  0.6497507901403685  0.5185087282014108  0.8804115865374817  1.0000
  H   H61       1.0  0.19993763567743417  0.03235427872411979  0.4768862822637792  1.0000
  H   H62       1.0  0.19993763550658544  0.467645721069343  0.9768862823444312  1.0000
  H   H63       1.0  0.8000623648136016  0.9676457214033835  0.5231137172660505  1.0000
  H   H64       1.0  0.8000623649844503  0.5323542785175827  0.023113717185398498  1.0000
  H   H65       1.0  0.18289169351063592  0.9752647358092773  0.12012074291768332  1.0000
  H   H66       1.0  0.18289169434516397  0.5247352641116888  0.6201207429949965  1.0000
  H   H67       1.0  0.8171083059786388  0.024735264318226036  0.8798792573412488  1.0000
  H   H68       1.0  0.8171083061494875  0.4752647360158145  0.37987925726059685  1.0000
  H   H69       1.0  0.22533779249505867  0.9038551195365869  0.9723187207766184  1.0000
  H   H70       1.0  0.22533779266590745  0.5961448803843792  0.4723187206959664  1.0000
  H   H71       1.0  0.7746622069942161  0.09614488005033868  0.02768127948231379  1.0000
  H   H72       1.0  0.7746622068233673  0.4038551197431241  0.5276812795629657  1.0000
  H   H73       1.0  0.23744823478273722  0.7698141670925274  0.980336635213376  1.0000
  H   H74       1.0  0.237448234953586  0.7301858328284387  0.480336635132724  1.0000
  H   H75       1.0  0.7625517657119143  0.23018583303497603  0.019663365042217287  1.0000
  H   H76       1.0  0.7625517655410655  0.2698141667584868  0.5196633651228693  1.0000
  H   H77       1.0  0.20942936764904443  0.7069114246827138  0.13969585970494264  1.0000
  H   H78       1.0  0.20942936848357244  0.7930885752382523  0.6396958597822557  1.0000
  H   H79       1.0  0.7905706318366146  0.2930885749042117  0.8603041398282261  1.0000
  H   H80       1.0  0.790570632011079  0.2069114248892511  0.3603041404733376  1.0000
  H   H81       1.0  0.16547233654233662  0.777392232194905  0.28788425285257224  1.0000
  H   H82       1.0  0.1654723363714879  0.7226077682666389  0.7878842529332242  1.0000
  H   H83       1.0  0.8345276639486991  0.22260776793259832  0.7121157466772575  1.0000
  H   H84       1.0  0.8345276631141711  0.2773922318608645  0.21211574659994442  1.0000
  C   C1        1.0  0.37094940034802987  0.10023918333177728  0.9246633049312503  1.0000
  C   C2        1.0  0.3709493995135018  0.3997608164616855  0.42466330485393705  1.0000
  C   C3        1.0  0.6290506001466217  0.8997608167957261  0.07533669532434309  1.0000
  C   C4        1.0  0.6290505999757731  0.6002391831252402  0.5753366954049951  1.0000
  C   C5        1.0  0.08728555882976308  0.02113213104211117  0.2877085866683389  1.0000
  C   C6        1.0  0.08728555865891433  0.4788678687513517  0.7877085867489909  1.0000
  C   C7        1.0  0.9127144416648886  0.9788678685448144  0.7122914135872543  1.0000
  C   C8        1.0  0.9127144408303606  0.5211321313761517  0.2122914135099413  1.0000
  C   C9        1.0  0.9521418526157955  0.03946428351906965  0.27232409160018856  1.0000
  C   C10       1.0  0.9521418524449468  0.46053571627439316  0.7723240916808405  1.0000
  C   C11       1.0  0.04785814687347921  0.9605357160678559  0.7276759086587437  1.0000
  C   C12       1.0  0.047858147044327955  0.5394642838531102  0.2276759085780917  1.0000
  C   C13       1.0  0.9201631276949649  0.10637519950140817  0.23159877102555418  1.0000
  C   C14       1.0  0.9201631275241161  0.39362480083263235  0.7315987711062062  1.0000
  C   C15       1.0  0.07983687279607095  0.8936248006260952  0.7684012285042756  1.0000
  C   C16       1.0  0.0798368719615429  0.6063751992948709  0.26840122842696246  1.0000
  C   C17       1.0  0.022828813264662393  0.1544027856301281  0.20636969224600918  1.0000
  C   C18       1.0  0.02282881309381365  0.3455972141633347  0.7063696923266612  1.0000
  C   C19       1.0  0.9771711872263734  0.8455972139567975  0.7936303072838206  1.0000
  C   C20       1.0  0.9771711863918454  0.6544027859641687  0.29363030720650746  1.0000
  C   C21       1.0  0.15733684847621981  0.13667427359838633  0.22309966046579063  1.0000
  C   C22       1.0  0.15733684931074784  0.36332572619507647  0.7230996605431038  1.0000
  C   C23       1.0  0.8426631510094392  0.8633257259885392  0.7769003390673779  1.0000
  C   C24       1.0  0.8426631511802879  0.6366742739324268  0.27690033898672595  1.0000
  C   C25       1.0  0.19018425285841273  0.07007701054455659  0.2636934952150384  1.0000
  C   C26       1.0  0.19018425369294076  0.4299229897894839  0.7636934952923514  1.0000
  C   C27       1.0  0.809815746630862  0.9299229895829467  0.7363065050438938  1.0000
  C   C28       1.0  0.8098157468017106  0.5700770103380194  0.23630650496324188  1.0000
  C   C29       1.0  0.0018389177012655  0.8841264163919835  0.3855179009412726  1.0000
  C   C30       1.0  0.0018389175304167598  0.6158735835289827  0.8855179010219245  1.0000
  C   C31       1.0  0.9981610817880093  0.11587358373551987  0.6144820993176597  1.0000
  C   C32       1.0  0.9981610819588581  0.38412641659852065  0.11448209923700764  1.0000
  C   C33       1.0  0.8864337308668431  0.8621578775405155  0.33449543468848747  1.0000
  C   C34       1.0  0.8864337306959946  0.6378421229210283  0.8344954347691395  1.0000
  C   C35       1.0  0.11356626962780836  0.13784212258698778  0.6655045655671058  1.0000
  C   C36       1.0  0.1135662697986571  0.362157877206475  0.16550456548645384  1.0000
  C   C37       1.0  0.7857768030476739  0.8239376682538182  0.3827382328148629  1.0000
  C   C38       1.0  0.7857768028768253  0.6760623316671479  0.8827382328955149  1.0000
  C   C39       1.0  0.21422319643798501  0.17606233133310742  0.6172617667183057  1.0000
  C   C40       1.0  0.21422319660883377  0.3239376684603554  0.11726176663765374  1.0000
  C   C41       1.0  0.8006993993761968  0.8057116663225281  0.48041998799131747  1.0000
  C   C42       1.0  0.8006993992053482  0.6942883341390158  0.9804199880719694  1.0000
  C   C43       1.0  0.19930060011307787  0.19428833380497523  0.5195800122676146  1.0000
  C   C44       1.0  0.19930060028392663  0.30571166598848754  0.019580012186962713  1.0000
  C   C45       1.0  0.9160167003688445  0.8263593418752819  0.530724390969371  1.0000
  C   C46       1.0  0.9160167005396932  0.6736406580456841  0.030724390888719005  1.0000
  C   C47       1.0  0.08398330012580704  0.17364065771164364  0.46927560928622225  1.0000
  C   C48       1.0  0.08398329995495829  0.32635934208181916  0.9692756093668743  1.0000
  C   C49       1.0  0.016066120280870844  0.8660899502021473  0.4840431336376953  1.0000
  C   C50       1.0  0.016066120110022102  0.6339100497188188  0.9840431337183474  1.0000
  C   C51       1.0  0.9839338802137806  0.13391004992535596  0.5159568666178979  1.0000
  C   C52       1.0  0.9839338803846295  0.36608994986810683  0.015956866537245932  1.0000
  C   C53       1.0  0.27180856676217047  0.9343796058971302  0.4070274131384815  1.0000
  C   C54       1.0  0.2718085675966985  0.5656203940238358  0.9070274132157945  1.0000
  C   C55       1.0  0.7281914327271042  0.06562039423037301  0.5929725871204506  1.0000
  C   C56       1.0  0.728191432897953  0.4343796061036675  0.0929725870397987  1.0000
  C   C57       1.0  0.3604242203498839  0.8755249322367874  0.41238328138273966  1.0000
  C   C58       1.0  0.36042422017903514  0.6244750676841788  0.9123832814633916  1.0000
  C   C59       1.0  0.6395757791393909  0.12447506789071597  0.5876167188761925  1.0000
  C   C60       1.0  0.6395757793102397  0.37552493190274683  0.08761671879554056  1.0000
  C   C61       1.0  0.44177961573769  0.8674809788682952  0.4939878293675205  1.0000
  C   C62       1.0  0.4417796155668412  0.632519021052671  0.9939878294481724  1.0000
  C   C63       1.0  0.5582203847533459  0.1325190212592082  0.5060121701623091  1.0000
  C   C64       1.0  0.5582203849278103  0.3674809790748323  0.006012170807420763  1.0000
  C   C65       1.0  0.43657348869834434  0.9181631973471348  0.5690696387716258  1.0000
  C   C66       1.0  0.43657348786381633  0.5818368025738313  0.06906963869431262  1.0000
  C   C67       1.0  0.5634265117963072  0.08183680278036858  0.43093036148396757  1.0000
  C   C68       1.0  0.5634265116254584  0.41816319755367193  0.9309303615646195  1.0000
  C   C69       1.0  0.3518848690342368  0.9781851204953781  0.5619343462299736  1.0000
  C   C70       1.0  0.3518848681997088  0.5218148794255879  0.0619343461526606  1.0000
  C   C71       1.0  0.6481151314604148  0.02181487963212514  0.4380656540256196  1.0000
  C   C72       1.0  0.648115131289566  0.4781851207019154  0.9380656541062716  1.0000
  C   C73       1.0  0.2685815123758553  0.9864661939598809  0.4813332763098174  1.0000
  C   C74       1.0  0.26858151220500665  0.513533806501663  0.9813332763904694  1.0000
  C   C75       1.0  0.7314184881187962  0.013533806167622531  0.5186667239457758  1.0000
  C   C76       1.0  0.731418488289645  0.48646619362584026  0.018666723865123865  1.0000
  C   C77       1.0  0.1708808129870075  0.8810634781153953  0.2142245412289609  1.0000
  C   C78       1.0  0.17088081281615877  0.6189365223461486  0.7142245413096129  1.0000
  C   C79       1.0  0.8291191875076441  0.11893652201210804  0.7857754590266324  1.0000
  C   C80       1.0  0.8291191876784928  0.38106347778135474  0.2857754589459804  1.0000
  C   C81       1.0  0.1881504084214644  0.9165362065024711  0.12500212280273862  1.0000
  C   C82       1.0  0.18815040825061563  0.5834637939590727  0.6250021228833907  1.0000
  C   C83       1.0  0.8118495920731871  0.08346379362503213  0.8749978774528546  1.0000
  C   C84       1.0  0.8118495922440359  0.4165362061684306  0.3749978773722027  1.0000
  C   C85       1.0  0.21045402075621056  0.8760018596406967  0.041181614267780275  1.0000
  C   C86       1.0  0.21045402159073864  0.6239981402802693  0.5411816143450933  1.0000
  C   C87       1.0  0.7895459787330642  0.12399814048680656  0.9588183859911519  1.0000
  C   C88       1.0  0.7895459789039129  0.37600185930665625  0.4588183859104999  1.0000
  C   C89       1.0  0.2165788526739721  0.8007112742219438  0.04597515699698896  1.0000
  C   C90       1.0  0.21657885350850012  0.6992887256990222  0.5459751570743021  1.0000
  C   C91       1.0  0.7834211468153027  0.19928872536498174  0.9540248432619433  1.0000
  C   C92       1.0  0.7834211469861515  0.30071127442848106  0.45402484318129127  1.0000
  C   C93       1.0  0.20072968671336774  0.7654779509529369  0.13475877391604255  1.0000
  C   C94       1.0  0.20072968654251902  0.7345220489680292  0.6347587739966946  1.0000
  C   C95       1.0  0.799270312775907  0.23452204863398865  0.8652412263428897  1.0000
  C   C96       1.0  0.7992703129467558  0.2654779511594741  0.36524122626223765  1.0000
  C   C97       1.0  0.17719582673055306  0.8053155212326413  0.21879642175882372  1.0000
  C   C98       1.0  0.17719582655970434  0.6946844786883248  0.7187964218394757  1.0000
  C   C99       1.0  0.8228041727587216  0.19468447889486204  0.7812035785001085  1.0000
  C   C100      1.0  0.8228041729295705  0.30531552089860076  0.2812035784194565  1.0000
  P   P1        1.0  0.13462026898164864  0.9313216533689326  0.32279617197077676  1.0000
  P   P2        1.0  0.13462026881079986  0.5686783470926112  0.8227961720514286  1.0000
  P   P3        1.0  0.8653797305076262  0.06867834675857067  0.6772038282881553  1.0000
  P   P4        1.0  0.8653797306784748  0.4313216530348921  0.17720382820750344  1.0000
  I   I1        1.0  0.4372601643545848  0.191941840490533  0.8380706642502636  1.0000
  I   I2        1.0  0.43726016452543354  0.3080581593029298  0.33807066416961157  1.0000
  I   I3        1.0  0.56273983513469  0.8080581596369703  0.16192933600866866  1.0000
  I   I4        1.0  0.5627398349638413  0.6919418408245736  0.6619293360893207  1.0000
  I   I5        1.0  0.4260946695024089  0.9961309145016477  0.8618412620423167  1.0000
  I   I6        1.0  0.42609466967325765  0.5038690854193184  0.36184126196166466  1.0000
  I   I7        1.0  0.5739053299868658  0.0038690856258556364  0.1381587382166155  1.0000
  I   I8        1.0  0.573905329816017  0.4961309147081849  0.6381587382972675  1.0000
  I   I9        1.0  0.15731772807316438  0.10294011454261484  0.954750162690622  1.0000
  I   I10       1.0  0.15731772723863635  0.3970598857914257  0.454750162613309  1.0000
  I   I11       1.0  0.8426822724214872  0.8970598855848886  0.045249837564971224  1.0000
  I   I12       1.0  0.8426822722506385  0.6029401143360776  0.5452498376456232  1.0000
  I   I13       1.0  0.533718050482165  0.31775889907932825  0.6780858563549789  1.0000
  I   I14       1.0  0.5337180506530137  0.18224110125471224  0.17808585627432685  1.0000
  I   I15       1.0  0.4662819500124865  0.682241101048175  0.3219141439006144  1.0000
  I   I16       1.0  0.46628194984163773  0.8177588988727911  0.8219141439812664  1.0000
