data_image0
_chemical_formula_structural       H80C108N8O20F24S8
_chemical_formula_sum              "H80 C108 N8 O20 F24 S8"
_cell_length_a       13.656795991646366
_cell_length_b       17.41083518797414
_cell_length_c       11.35343729493445
_cell_angle_alpha    90.0
_cell_angle_beta     106.85045351363038
_cell_angle_gamma    90.0

_space_group_name_H-M_alt    "P 1"
_space_group_IT_number       1

loop_
  _space_group_symop_operation_xyz
  'x, y, z'

loop_
  _atom_site_type_symbol
  _atom_site_label
  _atom_site_symmetry_multiplicity
  _atom_site_fract_x
  _atom_site_fract_y
  _atom_site_fract_z
  _atom_site_occupancy
  H   H1        1.0  0.9667568434669682  0.43898888522471446  0.14222289483131453  1.0000
  H   H2        1.0  0.03324315659381355  0.9389888855700701  0.3577771052175348  1.0000
  H   H3        1.0  0.03324315616771921  0.5610111143172868  0.8577771047840378  1.0000
  H   H4        1.0  0.9667568437964891  0.06101111454628615  0.642222895552848  1.0000
  H   H5        1.0  0.010568290212062932  0.3872441865773874  0.05295346435272611  1.0000
  H   H6        1.0  0.989431709848719  0.8872441869227431  0.4470465356961232  1.0000
  H   H7        1.0  0.9894317094132121  0.6127558129646139  0.9470465361400681  1.0000
  H   H8        1.0  0.010568290550996109  0.11275581319361322  0.5529534641968177  1.0000
  H   H9        1.0  0.3279646014842468  0.3074697578952208  0.4873976000503297  1.0000
  H   H10       1.0  0.6720353978115075  0.8074697582405764  0.012602399720930961  1.0000
  H   H11       1.0  0.6720353981504408  0.6925302416467806  0.5126023995650225  1.0000
  H   H12       1.0  0.32796460182317994  0.19253024187577983  0.9873975998944214  1.0000
  H   H13       1.0  0.709570280473495  0.35782592522058704  0.032074943470464974  1.0000
  H   H14       1.0  0.29042971958728686  0.8578259249915876  0.46792505657838435  1.0000
  H   H15       1.0  0.29042971916119253  0.6421740748957693  0.9679250561448872  1.0000
  H   H16       1.0  0.7095702808124282  0.1421740751247686  0.5320749433145565  1.0000
  H   H17       1.0  0.4529820528347779  0.3997406330517232  0.9247016192831334  1.0000
  H   H18       1.0  0.5470179471294304  0.8997406328227239  0.5752983810537523  1.0000
  H   H19       1.0  0.5470179475649372  0.6002593670646331  0.07529838060980733  1.0000
  H   H20       1.0  0.4529820524958447  0.1002593667192775  0.42470161943904194  1.0000
  H   H21       1.0  0.38028841166264565  0.4858637950833588  0.8993910391505331  1.0000
  H   H22       1.0  0.6197115883109752  0.9858637948543594  0.6006089603089108  1.0000
  H   H23       1.0  0.6197115879720418  0.5141362050329975  0.1006089604648192  1.0000
  H   H24       1.0  0.38028841208874  0.014136205261996852  0.39939103958403016  1.0000
  H   H25       1.0  0.5005945938311412  0.4827882137329026  0.8695790116870068  1.0000
  H   H26       1.0  0.4994054061330671  0.9827882140782582  0.6304209886498789  1.0000
  H   H27       1.0  0.4994054065685739  0.5172117863834537  0.130420988205934  1.0000
  H   H28       1.0  0.500594593492208  0.017211786038098077  0.36957901184291525  1.0000
  H   H29       1.0  0.5711977288617417  0.3838260277494234  0.5755687285258546  1.0000
  H   H30       1.0  0.428802271111879  0.8838260280947791  0.9244312709335891  1.0000
  H   H31       1.0  0.42880227077294586  0.6161739723669328  0.4244312710894975  1.0000
  H   H32       1.0  0.5711977285228086  0.11617397202157723  0.07556872868176315  1.0000
  H   H33       1.0  0.6268422084185259  0.47533028258841115  0.5685233256688449  1.0000
  H   H34       1.0  0.37315779155509476  0.9753302829337668  0.9314766737905988  1.0000
  H   H35       1.0  0.3731577912161616  0.5246697169535901  0.4314766739465073  1.0000
  H   H36       1.0  0.6268422088446203  0.024669717182589528  0.06852332610234202  1.0000
  H   H37       1.0  0.5052025354554068  0.4680270591285838  0.5946667235983282  1.0000
  H   H38       1.0  0.49479746451821377  0.9680270588995845  0.9053332758611156  1.0000
  H   H39       1.0  0.49479746494430815  0.5319729409877726  0.4053332762946127  1.0000
  H   H40       1.0  0.5052025351164737  0.03197294121677185  0.09466672375423664  1.0000
  H   H41       1.0  0.1067882437380905  0.3957430689344042  0.24336267118139146  1.0000
  H   H42       1.0  0.8932117563226915  0.8957430692797599  0.2566373288674579  1.0000
  H   H43       1.0  0.893211755896597  0.6042569311819521  0.7566373284339608  1.0000
  H   H44       1.0  0.10678824406761121  0.10425693083659647  0.7433626719029249  1.0000
  H   H45       1.0  0.8457223217482795  0.6135710788520197  0.18325804185124336  1.0000
  H   H46       1.0  0.15427767831250225  0.11357107908101904  0.3167419581976059  1.0000
  H   H47       1.0  0.15427767865143543  0.3864289212643366  0.8167419580416974  1.0000
  H   H48       1.0  0.8457223213221852  0.8864289210353372  0.6832580414177464  1.0000
  H   H49       1.0  0.9399278877377634  0.10775399168075718  0.9601867358339017  1.0000
  H   H50       1.0  0.06007211222644482  0.6077539920261128  0.5398132645029841  1.0000
  H   H51       1.0  0.060072112661951595  0.8922460084355991  0.039813264059039184  1.0000
  H   H52       1.0  0.9399278873988303  0.39224600809024346  0.4601867359898102  1.0000
  H   H53       1.0  0.03170509026154726  0.04536772713497316  0.16097100392660005  1.0000
  H   H54       1.0  0.9682949097992346  0.5453677269059738  0.33902899612224935  1.0000
  H   H55       1.0  0.9682949101381677  0.9546322729813831  0.8390289959663408  1.0000
  H   H56       1.0  0.03170508983545293  0.45463227321038246  0.660971003493103  1.0000
  H   H57       1.0  0.21264395522560608  0.23785260013605675  0.277978017891342  1.0000
  H   H58       1.0  0.7873560448351757  0.7378525999070574  0.22202198215750732  1.0000
  H   H59       1.0  0.7873560451646965  0.7621473999802995  0.7220219828790408  1.0000
  H   H60       1.0  0.2126439547995118  0.2621473996349439  0.7779780174578449  1.0000
  H   H61       1.0  0.13477676219143436  0.30623567005463054  0.07762901457114606  1.0000
  H   H62       1.0  0.8652232378787599  0.8062356703999861  0.42237098460026135  1.0000
  H   H63       1.0  0.8652232382082806  0.6937643294873708  0.9223709853217948  1.0000
  H   H64       1.0  0.13477676175592757  0.19376432971637012  0.5776290150150909  1.0000
  H   H65       1.0  0.9278957989468037  0.1583997304106866  0.774097592236719  1.0000
  H   H66       1.0  0.07210420101740456  0.6583997301816873  0.7259024081001666  1.0000
  H   H67       1.0  0.0721042014434989  0.8416002697056697  0.22590240853366378  1.0000
  H   H68       1.0  0.9278957986172829  0.34160026936031407  0.2740975915151856  1.0000
  H   H69       1.0  0.8234279936571391  0.23690834043670841  0.5997752623575796  1.0000
  H   H70       1.0  0.17657200630706912  0.7369083402077091  0.9002247379793061  1.0000
  H   H71       1.0  0.17657200596813594  0.7630916596796479  0.4002247381352146  1.0000
  H   H72       1.0  0.8234279940926459  0.26309165933429224  0.09977526191363471  1.0000
  H   H73       1.0  0.8062710441742408  0.37921627071402075  0.6316000256594628  1.0000
  H   H74       1.0  0.19372895579937988  0.8792162710593764  0.8683999737999811  1.0000
  H   H75       1.0  0.19372895546044672  0.6207837288279805  0.36839997395588947  1.0000
  H   H76       1.0  0.8062710446003352  0.12078372905697989  0.13160002609295976  1.0000
  H   H77       1.0  0.8988962090592792  0.43622183818303806  0.8344201144357185  1.0000
  H   H78       1.0  0.10110379090492892  0.9362218379540387  0.6655798859011671  1.0000
  H   H79       1.0  0.10110379057540818  0.5637781619333183  0.1655798851796338  1.0000
  H   H80       1.0  0.8988962094853736  0.06377816216231759  0.3344201148692155  1.0000
  C   C1        1.0  0.3800356239294491  0.4248869925039341  0.7348480090293931  1.0000
  C   C2        1.0  0.6199643760347592  0.9248869922749348  0.7651519913074928  1.0000
  C   C3        1.0  0.6199643756958261  0.5751130076124222  0.2651519914634012  1.0000
  C   C4        1.0  0.38003562436495586  0.07511300784142157  0.23484800858544816  1.0000
  C   C5        1.0  0.3970893991189736  0.35859772851749505  0.6730418363072124  1.0000
  C   C6        1.0  0.6029106008452346  0.8585977282884957  0.8269581640296733  1.0000
  C   C7        1.0  0.6029106005157139  0.6414022715988613  0.3269581633081399  1.0000
  C   C8        1.0  0.39708939954506794  0.14140227125350563  0.17304183674070936  1.0000
  C   C9        1.0  0.32840715933390996  0.35379174654726786  0.5515514199697952  1.0000
  C   C10       1.0  0.6715928406397107  0.8537917468926235  0.9484485794896489  1.0000
  C   C11       1.0  0.6715928403007775  0.6462082529947335  0.44844857964555723  1.0000
  C   C12       1.0  0.32840715976000434  0.14620825322373276  0.0515514204032921  1.0000
  C   C13       1.0  0.2629072755341557  0.4156199063327064  0.5217752238685384  1.0000
  C   C14       1.0  0.7370927244300525  0.915619906678062  0.9782247764683473  1.0000
  C   C15       1.0  0.7370927241005318  0.58438009378365  0.47822477574681393  1.0000
  C   C16       1.0  0.26290727596025004  0.08438009343829428  0.021775224302035386  1.0000
  C   C17       1.0  0.47381624287270213  0.30037748870383296  0.7274518228827587  1.0000
  C   C18       1.0  0.5261837570915062  0.8003774884748337  0.7725481774541271  1.0000
  C   C19       1.0  0.526183756752573  0.6996225114125233  0.2725481776100355  1.0000
  C   C20       1.0  0.4738162433082089  0.19962251164152267  0.2274518224388138  1.0000
  C   C21       1.0  0.44485059434166857  0.21674511413482028  0.7152273878605409  1.0000
  C   C22       1.0  0.5551494063875672  0.716745114480176  0.7847726127539335  1.0000
  C   C23       1.0  0.555149406048634  0.783254885981536  0.2847726129098419  1.0000
  C   C24       1.0  0.4448505940121478  0.2832548856361804  0.21522738713900738  1.0000
  C   C25       1.0  0.5461119282298743  0.17247224142780507  0.7736173423372211  1.0000
  C   C26       1.0  0.4538880717343338  0.6724722411988058  0.7263826579996646  1.0000
  C   C27       1.0  0.4538880721604282  0.8275277586885512  0.22638265843316166  1.0000
  C   C28       1.0  0.5461119279003536  0.32752775891755054  0.2736173416156877  1.0000
  C   C29       1.0  0.6155870657291603  0.23403456330541036  0.8565556557035067  1.0000
  C   C30       1.0  0.38441293423504797  0.734034563076411  0.6434443446333791  1.0000
  C   C31       1.0  0.3844129346705547  0.765965436810946  0.14344434418943425  1.0000
  C   C32       1.0  0.6155870653902271  0.2659654370399453  0.356555655859415  1.0000
  C   C33       1.0  0.5722470909513833  0.3096206012979466  0.8013107374502314  1.0000
  C   C34       1.0  0.42775290901282503  0.8096206016433023  0.6986892628866543  1.0000
  C   C35       1.0  0.42775290868330423  0.6903793982440548  0.19868926216512087  1.0000
  C   C36       1.0  0.5722470913774776  0.19037939847305407  0.3013107378837285  1.0000
  C   C37       1.0  0.6318611118629407  0.4389027940071585  0.7499161093062612  1.0000
  C   C38       1.0  0.36813888810126755  0.9389027937781592  0.7500838910306246  1.0000
  C   C39       1.0  0.36813888776233433  0.5610972061091979  0.250083891186533  1.0000
  C   C40       1.0  0.6318611122984475  0.06109720633819717  0.24991610886231627  1.0000
  C   C41       1.0  0.6326731034264436  0.3792442601811967  0.8327467250463506  1.0000
  C   C42       1.0  0.36732689654717704  0.8792442605265524  0.6672532744130932  1.0000
  C   C43       1.0  0.3673268969732714  0.6207557399351595  0.16725327484659022  1.0000
  C   C44       1.0  0.6326731030875105  0.12075573958980391  0.3327467252022591  1.0000
  C   C45       1.0  0.6982320426807638  0.3957691613070615  0.9532051632650211  1.0000
  C   C46       1.0  0.30176795728344447  0.8957691610780621  0.5467948370718647  1.0000
  C   C47       1.0  0.3017679577095388  0.6042308388092947  0.046794837505361675  1.0000
  C   C48       1.0  0.698232042351243  0.10423083846393914  0.45320516254348764  1.0000
  C   C49       1.0  0.7408873037051776  0.4678903189909456  0.961909176984325  1.0000
  C   C50       1.0  0.2591126962590306  0.9678903193363012  0.5380908233525608  1.0000
  C   C51       1.0  0.2591126966945374  0.5321096805510557  0.03809082290861588  1.0000
  C   C52       1.0  0.7408873033756569  0.032109680780055085  0.4619091762627915  1.0000
  C   C53       1.0  0.43081459510268716  0.44964338559745537  0.8637767145752842  1.0000
  C   C54       1.0  0.5691854048615211  0.9496433853684559  0.6362232857616016  1.0000
  C   C55       1.0  0.5691854045320004  0.5503566145189009  0.13622328504006806  1.0000
  C   C56       1.0  0.430814595538194  0.05035661417354531  0.36377671413133933  1.0000
  C   C57       1.0  0.5813060657944767  0.4416096836819601  0.6151934568599802  1.0000
  C   C58       1.0  0.41869393417914397  0.9416096840273157  0.8848065425994636  1.0000
  C   C59       1.0  0.4186939338402108  0.5583903164343963  0.38480654275537207  1.0000
  C   C60       1.0  0.5813060662205711  0.058390316089040564  0.11519345729347726  1.0000
  C   C61       1.0  0.1802698501133095  0.4327098722526366  0.4090118026301665  1.0000
  C   C62       1.0  0.8197301499474724  0.9327098720236372  0.09098819741868286  1.0000
  C   C63       1.0  0.8197301502864055  0.5672901278637197  0.5909881972627744  1.0000
  C   C64       1.0  0.18026985044283025  0.06729012751836407  0.9090118033516998  1.0000
  C   C65       1.0  0.8056033492056063  0.508798508190965  0.07150840067320144  1.0000
  C   C66       1.0  0.1943966508551755  0.008798507845609246  0.42849159937564785  1.0000
  C   C67       1.0  0.19439665119410865  0.4912014919253914  0.9284915992197394  1.0000
  C   C68       1.0  0.805603348779512  0.991201491696392  0.5715084002397044  1.0000
  C   C69       1.0  0.028187437429773497  0.21348375192060437  0.004901366901408877  1.0000
  C   C70       1.0  0.9718125626310083  0.71348375226596  0.49509863314744046  1.0000
  C   C71       1.0  0.9718125629699415  0.7865162481957519  0.9950986329915319  1.0000
  C   C72       1.0  0.02818743699426672  0.2865162478503963  0.5049013673453537  1.0000
  C   C73       1.0  0.0019248540206338322  0.1379184360816067  0.026029056923241815  1.0000
  C   C74       1.0  0.998075146040148  0.6379184358526074  0.47397094312560745  1.0000
  C   C75       1.0  0.9980751456140536  0.8620815640347496  0.9739709426921104  1.0000
  C   C76       1.0  0.0019248543595670085  0.3620815636893939  0.5260290567673334  1.0000
  C   C77       1.0  0.05077021506492048  0.102785238656218  0.13678643448184238  1.0000
  C   C78       1.0  0.9492297849958614  0.6027852384272187  0.36321356556700696  1.0000
  C   C79       1.0  0.9492297853347945  0.8972147614601383  0.8632135654110985  1.0000
  C   C80       1.0  0.05077021463882614  0.39721476168913766  0.6367864340483453  1.0000
  C   C81       1.0  0.15335399804159208  0.2116956280503891  0.20351943834282304  1.0000
  C   C82       1.0  0.8466460020191897  0.7116956278213898  0.2964805617060262  1.0000
  C   C83       1.0  0.8466460015836829  0.7883043720659672  0.796480562149971  1.0000
  C   C84       1.0  0.15335399838052527  0.2883043722949665  0.7035194381869145  1.0000
  C   C85       1.0  0.10875089329180661  0.2492585228190287  0.0938318618545519  1.0000
  C   C86       1.0  0.8912491067689753  0.7492585225900293  0.4061681381942974  1.0000
  C   C87       1.0  0.891249106342881  0.7507414772973275  0.9061681377608004  1.0000
  C   C88       1.0  0.10875089362132734  0.2507414775263269  0.5938318625760853  1.0000
  C   C89       1.0  0.9679941453702027  0.2566769567198454  0.8964745732811704  1.0000
  C   C90       1.0  0.032005854594005574  0.7566769564908461  0.6035254270557153  1.0000
  C   C91       1.0  0.032005854264484844  0.7433230433965109  0.10352542633418185  1.0000
  C   C92       1.0  0.9679941450312695  0.24332304362551022  0.3964745734370789  1.0000
  C   C93       1.0  0.9192799236347952  0.2199002493943823  0.7852730126258012  1.0000
  C   C94       1.0  0.0807200763294132  0.719900249165383  0.7147269877110844  1.0000
  C   C95       1.0  0.08072007599989248  0.780099750721974  0.21472698698955106  1.0000
  C   C96       1.0  0.9192799240608894  0.2800997509509734  0.2852730130592982  1.0000
  C   C97       1.0  0.860078176813022  0.26376792844332  0.6881632311421481  1.0000
  C   C98       1.0  0.13992182316059856  0.7637679282143206  0.8118367683172957  1.0000
  C   C99       1.0  0.1399218235866929  0.7362320716730364  0.3118367687507928  1.0000
  C   C100      1.0  0.8600781764740889  0.23623207132768073  0.18816323129805657  1.0000
  C   C101      1.0  0.850214252161175  0.3422542115679724  0.7052344772787001  1.0000
  C   C102      1.0  0.14978574780303328  0.842254211338973  0.7947655230581854  1.0000
  C   C103      1.0  0.14978574747351256  0.6577457885483838  0.29476552233665204  1.0000
  C   C104      1.0  0.8502142525966817  0.1577457887773832  0.20523447683475537  1.0000
  C   C105      1.0  0.9023594517357848  0.3746109643554043  0.8186803444116524  1.0000
  C   C106      1.0  0.09764054822842332  0.8746109641264049  0.6813196559252332  1.0000
  C   C107      1.0  0.09764054788949014  0.625389035760952  0.18131965608114162  1.0000
  C   C108      1.0  0.9023594521712918  0.1253890359899513  0.3186803439677077  1.0000
  N   N1        1.0  0.9603884398954035  0.3332161195809384  0.912539021540353  1.0000
  N   N2        1.0  0.03961156007821726  0.833216119351939  0.5874609779190908  1.0000
  N   N3        1.0  0.0396115597392841  0.666783880535418  0.08746097807499933  1.0000
  N   N4        1.0  0.9603884403214977  0.1667838807644173  0.41253902197385  1.0000
  N   N5        1.0  0.1224509272456074  0.14081713275268076  0.22345808858121288  1.0000
  N   N6        1.0  0.877549072050147  0.6408171325236813  0.27654191119004784  1.0000
  N   N7        1.0  0.8775490723890802  0.8591828673636756  0.7765419110341394  1.0000
  N   N8        1.0  0.12245092757512811  0.35918286759267487  0.7234580893027462  1.0000
  O   O1        1.0  0.03162315128987052  0.42056261867653694  0.12830093330626105  1.0000
  O   O2        1.0  0.9683768487709115  0.9205626184475376  0.3716990667425883  1.0000
  O   O3        1.0  0.9683768491098446  0.5794373814398193  0.8716990665866798  1.0000
  O   O4        1.0  0.03162315085436374  0.07943738166881868  0.6283009337502059  1.0000
  O   O5        1.0  0.16320626768469826  0.3779919675849714  0.324185858321869  1.0000
  O   O6        1.0  0.8367937323760837  0.8779919673559721  0.17581414172698034  1.0000
  O   O7        1.0  0.8367937319499893  0.6220080325313849  0.6758141412934832  1.0000
  O   O8        1.0  0.16320626802363142  0.12200803276038427  0.8241858581659606  1.0000
  O   O9        1.0  0.1317918547617049  0.49380076585518307  0.3982323028374028  1.0000
  O   O10       1.0  0.8682081452990769  0.9938007656261836  0.10176769721144646  1.0000
  O   O11       1.0  0.86820814563801  0.5061992342611733  0.601767697055538  1.0000
  O   O12       1.0  0.13179185509122565  0.006199234490172598  0.8982323035589362  1.0000
  O   O13       1.0  0.8559915280626269  0.47013973606813725  0.16370769714663228  1.0000
  O   O14       1.0  0.14400847199815486  0.970139736413493  0.336292302902217  1.0000
  O   O15       1.0  0.1440084715626481  0.529860264048219  0.836292303346162  1.0000
  O   O16       1.0  0.8559915284015602  0.02986026370286334  0.6637076969907238  1.0000
  O   O17       1.0  0.8032318049639626  0.5824152202074743  0.06374447929408174  1.0000
  O   O18       1.0  0.1967681950968192  0.08241521986211861  0.4362555207547676  1.0000
  O   O19       1.0  0.19676819543575236  0.41758477990888204  0.9362555205988591  1.0000
  O   O20       1.0  0.8032318045284559  0.9175847796798827  0.5637444797380267  1.0000
  F   F1        1.0  0.39983128278902774  0.1929747530044215  0.5961396017821804  1.0000
  F   F2        1.0  0.6001687171751805  0.6929747533497771  0.9038603985547055  1.0000
  F   F3        1.0  0.6001687168456598  0.8070252471119348  0.4038603978331719  1.0000
  F   F4        1.0  0.399831282459507  0.30702524676657916  0.09613960106064692  1.0000
  F   F5        1.0  0.3752583398180876  0.19960519254127593  0.7796981961914705  1.0000
  F   F6        1.0  0.6247416601461206  0.6996051928866316  0.7203018041454152  1.0000
  F   F7        1.0  0.6247416598165999  0.8003948075750803  0.22030180342388186  1.0000
  F   F8        1.0  0.3752583402441819  0.3003948072297247  0.2796981966249674  1.0000
  F   F9        1.0  0.5887271686257172  0.14971445837362501  0.6838138420091446  1.0000
  F   F10       1.0  0.4112728313384911  0.6497144587189806  0.8161861583277411  1.0000
  F   F11       1.0  0.4112728310089704  0.8502855411683763  0.31618615760620766  1.0000
  F   F12       1.0  0.588727168286784  0.35028554139737567  0.18381384216505312  1.0000
  F   F13       1.0  0.5325101291768107  0.10857106334023886  0.8364016463583799  1.0000
  F   F14       1.0  0.4674898707873975  0.6085710631112395  0.6635983539785059  1.0000
  F   F15       1.0  0.46748987122290425  0.8914289367761175  0.16359835353456098  1.0000
  F   F16       1.0  0.5325101288378776  0.3914289370051168  0.33640164651428833  1.0000
  F   F17       1.0  0.7166151936759393  0.22338643654994875  0.8636242784862228  1.0000
  F   F18       1.0  0.28338480629768137  0.7233864368953044  0.636375720973221  1.0000
  F   F19       1.0  0.2833848067237757  0.7766135635664076  0.13637572140671814  1.0000
  F   F20       1.0  0.7166151933370062  0.2766135632210519  0.3636242786421312  1.0000
  F   F21       1.0  0.6098903953786338  0.22672051153103265  0.9768301979268198  1.0000
  F   F22       1.0  0.3901096045949869  0.7267205113020333  0.523169801532624  1.0000
  F   F23       1.0  0.3901096050210812  0.7732794885853236  0.023169801966121017  1.0000
  F   F24       1.0  0.6098903950397007  0.27327948881432296  0.47683019808272825  1.0000
  S   S1        1.0  0.283755392612293  0.47954985960506935  0.6426915833501502  1.0000
  S   S2        1.0  0.7162446073613277  0.9795498593760701  0.8573084161092935  1.0000
  S   S3        1.0  0.7162446070223946  0.520450140511287  0.35730841626520204  1.0000
  S   S4        1.0  0.2837553930383873  0.02045014074028629  0.1426915837836473  1.0000
  S   S5        1.0  0.7039092137800358  0.5148603041278363  0.8223070198174928  1.0000
  S   S6        1.0  0.2960907861841725  0.014860303782480691  0.6776929805193929  1.0000
  S   S7        1.0  0.29609078585465176  0.48513969598851997  0.17769297979785953  1.0000
  S   S8        1.0  0.7039092142061301  0.9851396963338757  0.32230702025098984  1.0000
