data_image0
_chemical_formula_structural       H76C60N14O16S4
_chemical_formula_sum              "H76 C60 N14 O16 S4"
_cell_length_a       9.697492561863072
_cell_length_b       11.774003075815932
_cell_length_c       14.319839940547798
_cell_angle_alpha    84.56393843299699
_cell_angle_beta     72.50420103477713
_cell_angle_gamma    89.6240942442348

_space_group_name_H-M_alt    "P 1"
_space_group_IT_number       1

loop_
  _space_group_symop_operation_xyz
  'x, y, z'

loop_
  _atom_site_type_symbol
  _atom_site_label
  _atom_site_symmetry_multiplicity
  _atom_site_fract_x
  _atom_site_fract_y
  _atom_site_fract_z
  _atom_site_occupancy
  H   H1        1.0  0.06556916382486316  0.1896686388112201  0.9221579103392101  1.0000
  H   H2        1.0  0.9344308361231004  0.8103313609775444  0.07784208973008251  1.0000
  H   H3        1.0  0.01960603777204101  0.3329771102886537  0.9502078523780771  1.0000
  H   H4        1.0  0.9803939621759226  0.6670228895001109  0.04979214769121568  1.0000
  H   H5        1.0  0.33048312429716525  0.27678423607401753  0.03905520311524294  1.0000
  H   H6        1.0  0.6695168756507983  0.723215763714747  0.9609447969540498  1.0000
  H   H7        1.0  0.2675456106334729  0.35771322232286845  0.9484354279771589  1.0000
  H   H8        1.0  0.7324543893144906  0.6422867774658961  0.05156457209213402  1.0000
  H   H9        1.0  0.31134686485805424  0.21066903666028136  0.9354630937608953  1.0000
  H   H10       1.0  0.6886531350899092  0.7893309631284833  0.06453690630839744  1.0000
  H   H11       1.0  0.6837664067716391  0.02534875984528442  0.340547832046387  1.0000
  H   H12       1.0  0.31623359319868904  0.9746512408039785  0.6594521672588594  1.0000
  H   H13       1.0  0.5057495983733776  0.2072424685816684  0.1288579241321136  1.0000
  H   H14       1.0  0.4942504015745858  0.7927575312070962  0.8711420759371792  1.0000
  H   H15       1.0  0.3899982696566921  0.33998010397577727  0.2511315272154162  1.0000
  H   H16       1.0  0.6100017302912714  0.6600198958129874  0.7488684728538766  1.0000
  H   H17       1.0  0.9510753004241606  0.006013793696779215  0.19623326357187634  1.0000
  H   H18       1.0  0.048924699523803  0.9939862060919855  0.8037667364974164  1.0000
  H   H19       1.0  0.9085771047202834  0.15170756318150058  0.21507440052030904  1.0000
  H   H20       1.0  0.09142289522768009  0.848292436607264  0.7849255995489838  1.0000
  H   H21       1.0  0.815859811711159  0.2686152389387308  0.09294953527549185  1.0000
  H   H22       1.0  0.18414018823680448  0.7313847608500336  0.9070504647938009  1.0000
  H   H23       1.0  0.7996133395933949  0.2046163397100755  0.9893919489653292  1.0000
  H   H24       1.0  0.20038666035456854  0.7953836600786891  0.010608051103963614  1.0000
  H   H25       1.0  0.27006777695729767  0.41557630790807076  0.36865204491192693  1.0000
  H   H26       1.0  0.7299322230024065  0.5844236927339937  0.6313479550943176  1.0000
  H   H27       1.0  0.4387865365401379  0.4893143958571856  0.34557456826392124  1.0000
  H   H28       1.0  0.5612134634078255  0.510685603931579  0.6544254318053715  1.0000
  H   H29       1.0  0.9382864756058111  0.9133781212041578  0.4987790820318534  1.0000
  H   H30       1.0  0.06171352434215241  0.0866218785846068  0.5012209180374394  1.0000
  H   H31       1.0  0.7954460505356887  0.8162286820768657  0.5545192840112639  1.0000
  H   H32       1.0  0.2045539494122749  0.18377131771189895  0.44548071605802875  1.0000
  H   H33       1.0  0.17186729693913821  0.12930046960641706  0.15271679798357887  1.0000
  H   H34       1.0  0.8281327030088252  0.8706995301823476  0.8472832020857138  1.0000
  H   H35       1.0  0.15652428388965847  0.06420680162767736  0.04874971494839086  1.0000
  H   H36       1.0  0.843475716058305  0.9357931981610872  0.9512502851209019  1.0000
  H   H37       1.0  0.600184522198049  0.19888127312067078  0.8378580290534271  1.0000
  H   H38       1.0  0.3998154777605386  0.8011187266752922  0.16214197031486755  1.0000
  H   H39       1.0  0.7643497447358705  0.13945318104457854  0.8505448896232018  1.0000
  H   H40       1.0  0.23565025523445782  0.8605468196046843  0.14945510968204448  1.0000
  H   H41       1.0  0.6001217499237294  0.055654485401171024  0.892542607305359  1.0000
  H   H42       1.0  0.39987825002423416  0.9443455143875935  0.10745739276393385  1.0000
  H   H43       1.0  0.19849412571528013  0.44927123754287257  0.5448895593437817  1.0000
  H   H44       1.0  0.8015058742326834  0.5507287622458921  0.4551104407255112  1.0000
  H   H45       1.0  0.24647165696281334  0.5805936344640394  0.4701178406726192  1.0000
  H   H46       1.0  0.7535283429851501  0.4194063653247251  0.5298821593966736  1.0000
  H   H47       1.0  0.3679104995118316  0.5174449687896909  0.5298707586029062  1.0000
  H   H48       1.0  0.632089500436132  0.48255503099907365  0.4701292414663864  1.0000
  H   H49       1.0  0.8928517861658278  0.7755537743158658  0.6993109536554653  1.0000
  H   H50       1.0  0.10714821379387642  0.22444622632619876  0.3006890463507793  1.0000
  H   H51       1.0  0.03732090343855809  0.8730509323264245  0.6409864639387632  1.0000
  H   H52       1.0  0.9626790965094053  0.12694906746234005  0.35901353613052944  1.0000
  H   H53       1.0  0.9764979404001704  0.6529434725647564  0.5581323172389427  1.0000
  H   H54       1.0  0.023502059547793212  0.3470565272240083  0.44186768283035005  1.0000
  H   H55       1.0  0.11613448451451144  0.6753291966206898  0.6119501248182936  1.0000
  H   H56       1.0  0.8838655154451925  0.3246708040213748  0.38804987518795103  1.0000
  H   H57       1.0  0.11879714165789122  0.7527481477366562  0.49893021498456713  1.0000
  H   H58       1.0  0.8812028582900723  0.24725185205210837  0.5010697850847257  1.0000
  H   H59       1.0  0.4781629746403062  0.2899397671678754  0.5391332926761935  1.0000
  H   H60       1.0  0.5218370253076573  0.7100602326208892  0.4608667073930992  1.0000
  H   H61       1.0  0.07844685972506578  0.3023469942759236  0.0979792175218386  1.0000
  H   H62       1.0  0.9215531402335219  0.6976530055200393  0.9020207818464557  1.0000
  H   H63       1.0  0.7059775882580015  0.6776908138019101  0.27152162797127927  1.0000
  H   H64       1.0  0.2940224117017027  0.3223091868401544  0.7284783720349653  1.0000
  H   H65       1.0  0.8107237760807027  0.8300897937590761  0.34215530752058604  1.0000
  H   H66       1.0  0.1892762238790016  0.16991020688298847  0.6578446924856586  1.0000
  H   H67       1.0  0.059584703162521256  0.8168814224735782  0.35350635605080444  1.0000
  H   H68       1.0  0.9404152967971829  0.18311857816848665  0.6464936439554403  1.0000
  H   H69       1.0  0.21501615031317772  0.6520194816195509  0.29089621961340345  1.0000
  H   H70       1.0  0.7849838496347857  0.34798051816921377  0.7091037804558893  1.0000
  H   H71       1.0  0.6430932821325178  0.42768018603783053  0.8739060747393046  1.0000
  H   H72       1.0  0.3569067178271865  0.5723198146042342  0.12609392526694008  1.0000
  H   H73       1.0  0.6433063112093703  0.4845532921094675  0.025042969589612052  1.0000
  H   H74       1.0  0.3566936887503338  0.515446708532597  0.9749570304166326  1.0000
  H   H75       1.0  0.4851325079475501  0.3980730209465047  0.07703918827459483  1.0000
  H   H76       1.0  0.514867492012154  0.6019269796955599  0.9229608117316499  1.0000
  C   C1        1.0  0.018404566855983854  0.24420736672152152  0.9813044952212675  1.0000
  C   C2        1.0  0.9815954330919796  0.7557926330672431  0.018695504848025346  1.0000
  C   C3        1.0  0.2673464612149704  0.27342634118170617  0.9876585399241237  1.0000
  C   C4        1.0  0.7326535387329931  0.7265736586070584  0.012341460145169068  1.0000
  C   C5        1.0  0.6442184779136877  0.121652531969496  0.6632367518559158  1.0000
  C   C6        1.0  0.3557815220342758  0.8783474678192685  0.3367632482133769  1.0000
  C   C7        1.0  0.5907732570056308  0.14960425056686114  0.48570547996644337  1.0000
  C   C8        1.0  0.40922674294233263  0.8503957492219035  0.5142945201028495  1.0000
  C   C9        1.0  0.6203195188427922  0.09471011513936616  0.3204418659556849  1.0000
  C   C10       1.0  0.3796804811051712  0.9052898846493984  0.6795581341136078  1.0000
  C   C11       1.0  0.5585239616021184  0.1696260960648544  0.39105849730921477  1.0000
  C   C12       1.0  0.44147603834584515  0.8303739037239102  0.6089415027600777  1.0000
  C   C13       1.0  0.475914669221274  0.2600973285663307  0.3642684668115459  1.0000
  C   C14       1.0  0.5240853307266894  0.7399026712224338  0.6357315332577468  1.0000
  C   C15       1.0  0.5624534684225307  0.22020850740858386  0.6486878085797837  1.0000
  C   C16       1.0  0.4375465315254328  0.7797914923801808  0.35131219148950904  1.0000
  C   C17       1.0  0.699177136089742  0.05105429916132582  0.5868210308575171  1.0000
  C   C18       1.0  0.30082286385822155  0.9489457006274388  0.41317896921177566  1.0000
  C   C19       1.0  0.6022643904159866  0.1087367431379098  0.22736449601739447  1.0000
  C   C20       1.0  0.3977356095437177  0.8912632575041547  0.7726355039888501  1.0000
  C   C21       1.0  0.5190449128416103  0.19712333651729275  0.20205165160374638  1.0000
  C   C22       1.0  0.4809550871063532  0.8028766632714719  0.7979483484655463  1.0000
  C   C23       1.0  0.7837785800679945  0.9695441611788179  0.6235983348985953  1.0000
  C   C24       1.0  0.2162214198917097  0.030455839463246526  0.3764016651076492  1.0000
  C   C25       1.0  0.455214259276807  0.2717453885926675  0.27096514788845766  1.0000
  C   C26       1.0  0.5447857406711565  0.7282546111960971  0.7290348521808351  1.0000
  C   C27       1.0  0.9529026011666256  0.09191367635064658  0.15894672744234445  1.0000
  C   C28       1.0  0.047097398781337674  0.908086323438118  0.8410532726269483  1.0000
  C   C29       1.0  0.8647491070981871  0.2065969142304876  0.03992591187660339  1.0000
  C   C30       1.0  0.13525089286151729  0.7934030864115771  0.9600740881296413  1.0000
  C   C31       1.0  0.3534455872402238  0.43815253982957914  0.40177766334094  1.0000
  C   C32       1.0  0.6465544127077398  0.5618474599591854  0.5982223367283527  1.0000
  C   C33       1.0  0.8694613579112143  0.8762553023580067  0.5713757154263861  1.0000
  C   C34       1.0  0.1305386420484898  0.12374469828405794  0.4286242845798586  1.0000
  C   C35       1.0  0.10795418689160999  0.12569369416945025  0.10152372420955366  1.0000
  C   C36       1.0  0.8920458130680942  0.8743063064726142  0.898476275796691  1.0000
  C   C37       1.0  0.6623556233828622  0.12076258328790068  0.836221008927209  1.0000
  C   C38       1.0  0.3376443765651014  0.879237416500864  0.1637789911420838  1.0000
  C   C39       1.0  0.2884359908320745  0.4991903160594034  0.49217170376415337  1.0000
  C   C40       1.0  0.711564009115889  0.5008096837293613  0.5078282963051395  1.0000
  C   C41       1.0  0.9621760676729633  0.8119814096159801  0.6270030402482679  1.0000
  C   C42       1.0  0.03782393228674086  0.18801859102608443  0.37299695975797675  1.0000
  C   C43       1.0  0.047928101988654576  0.7178373519632429  0.5712244084841375  1.0000
  C   C44       1.0  0.9520718979593088  0.2821626478255216  0.4287755915851552  1.0000
  C   C45       1.0  0.045432608150049486  0.5733101555451396  0.24834997256885352  1.0000
  C   C46       1.0  0.954567391797914  0.4266898442436248  0.7516500275004392  1.0000
  C   C47       1.0  0.9036759244625409  0.5814084322196438  0.2443617474755216  1.0000
  C   C48       1.0  0.09632407548542252  0.41859156756912086  0.7556382525937712  1.0000
  C   C49       1.0  0.8160768003026415  0.6722801108764154  0.2763773005845208  1.0000
  C   C50       1.0  0.18392319964532194  0.3277198889123491  0.7236226994847719  1.0000
  C   C51       1.0  0.11605474138958978  0.46807777199031864  0.20607654596682595  1.0000
  C   C52       1.0  0.8839452585701144  0.5319222286517459  0.7939234540394187  1.0000
  C   C53       1.0  0.8757688392656285  0.757149751734484  0.31588347688405294  1.0000
  C   C54       1.0  0.12423116068233472  0.24285024805428057  0.6841165231852399  1.0000
  C   C55       1.0  0.016902523545372708  0.7496150056705404  0.32203747083638934  1.0000
  C   C56       1.0  0.9830974764025906  0.2503849941182243  0.6779625292329035  1.0000
  C   C57       1.0  0.10404420966101365  0.6578066206194176  0.28777152633690023  1.0000
  C   C58       1.0  0.8959557902869497  0.342193379169347  0.7122284737323924  1.0000
  C   C59       1.0  0.5469242914030316  0.4510291369457839  0.010474646302842243  1.0000
  C   C60       1.0  0.4530757085566727  0.5489708636962807  0.9895253537034023  1.0000
  N   N1        1.0  0.6733219898261265  0.06389648551383428  0.4981756721874249  1.0000
  N   N2        1.0  0.32667801013357767  0.9361035151282302  0.5018243278188197  1.0000
  N   N3        1.0  0.5363250102445666  0.22294413968287927  0.5573207035987962  1.0000
  N   N4        1.0  0.463674989703397  0.7770558601058853  0.44267929647049664  1.0000
  N   N5        1.0  0.6931044545747824  0.08095168253304073  0.7392430375235369  1.0000
  N   N6        1.0  0.30689554537318114  0.9190483172557238  0.26075696254575587  1.0000
  N   N7        1.0  0.8654380434190397  0.09181159849412404  0.0908491029201018  1.0000
  N   N8        1.0  0.13456195652892375  0.9081884012946405  0.909150897149191  1.0000
  N   N9        1.0  0.7775744362184615  0.9890763947317279  0.7157477792929291  1.0000
  N   N10       1.0  0.22242556372950215  0.010923605057036706  0.28425222077636353  1.0000
  N   N11       1.0  0.11548767516708568  0.24014121410179204  0.045411311386576364  1.0000
  N   N12       1.0  0.8845123247808778  0.7598587856869726  0.9545886886827163  1.0000
  N   N13       1.0  0.025602709318423268  0.40171349138005696  0.17714154143118158  1.0000
  N   N14       1.0  0.9743972906295402  0.5982865084087077  0.8228584586381111  1.0000
  O   O1        1.0  0.7305814964893655  0.9163295575573741  0.1828377927334903  1.0000
  O   O2        1.0  0.2694185034703386  0.08367044308469043  0.8171622072727542  1.0000
  O   O3        1.0  0.6414072891159751  0.030943110205733152  0.05683613789141676  1.0000
  O   O4        1.0  0.3585927108319884  0.9690568895830313  0.943163862177876  1.0000
  O   O5        1.0  0.41738765944052025  0.3341141329756541  0.43222085666715837  1.0000
  O   O6        1.0  0.5826123405180674  0.6658858668203088  0.567779142701136  1.0000
  O   O7        1.0  0.5202562750730838  0.29723757048771327  0.7036122982568834  1.0000
  O   O8        1.0  0.47974372487487976  0.7027624293010513  0.2963877018124093  1.0000
  O   O9        1.0  0.8390428235628747  0.48494138931141184  0.10033158674924003  1.0000
  O   O10       1.0  0.1609571763968294  0.5150586113306527  0.8996684132570046  1.0000
  O   O11       1.0  0.24553577025672293  0.44624407966336127  0.1979347793853646  1.0000
  O   O12       1.0  0.7544642297029812  0.5537559209787033  0.8020652206208799  1.0000
  O   O13       1.0  0.7556391225929736  0.38598581822756606  0.2680407907616459  1.0000
  O   O14       1.0  0.24436087735498999  0.6140141815611986  0.7319592093076469  1.0000
  O   O15       1.0  0.5871669912663  0.37818209974305605  0.93219654149992  1.0000
  O   O16       1.0  0.41283300869340417  0.6218179008990085  0.06780345850632452  1.0000
  S   S1        1.0  0.704083648037811  0.025638541030240332  0.13680379914349428  1.0000
  S   S2        1.0  0.29591635191015253  0.9743614587585242  0.8631962009257985  1.0000
  S   S3        1.0  0.8653200695734088  0.45693630110993055  0.19464848096150672  1.0000
  S   S4        1.0  0.13467993038629547  0.5430636995321341  0.8053515190447379  1.0000
