data_image0
_chemical_formula_structural       H30C26N8O8
_chemical_formula_sum              "H30 C26 N8 O8"
_cell_length_a       10.610593486447836
_cell_length_b       9.07689431588648
_cell_length_c       7.691482574198633
_cell_angle_alpha    83.7150940589063
_cell_angle_beta     74.57387446197066
_cell_angle_gamma    68.844498185863

_space_group_name_H-M_alt    "P 1"
_space_group_IT_number       1

loop_
  _space_group_symop_operation_xyz
  'x, y, z'

loop_
  _atom_site_type_symbol
  _atom_site_label
  _atom_site_symmetry_multiplicity
  _atom_site_fract_x
  _atom_site_fract_y
  _atom_site_fract_z
  _atom_site_occupancy
  H   H1        1.0  0.5606752912939427  0.8885430376136333  0.3747794072672957  1.0000
  H   H2        1.0  0.4393247087819535  0.11145696198862474  0.6252205927450897  1.0000
  H   H3        1.0  0.2984804707032414  0.012793559522464247  0.484670766040878  1.0000
  H   H4        1.0  0.7015195290141225  0.9872064412612354  0.5153292339525506  1.0000
  H   H5        1.0  0.15067971929643487  0.860228949799769  0.4620294276408012  1.0000
  H   H6        1.0  0.8493202804209288  0.13977105098393064  0.5379705723526275  1.0000
  H   H7        1.0  0.7643730939983264  0.6587205286206558  0.23624133309148748  1.0000
  H   H8        1.0  0.23562690607756967  0.34127947098160233  0.763758666920898  1.0000
  H   H9        1.0  0.8203519087330942  0.14539754458220475  0.0487059081601264  1.0000
  H   H10       1.0  0.17964809098426948  0.8546024562014949  0.9512940918333022  1.0000
  H   H11       1.0  0.6512603282138055  0.014952213930614784  0.038628084629005216  1.0000
  H   H12       1.0  0.34873967150355817  0.9850477868530849  0.9613719153644235  1.0000
  H   H13       1.0  0.39426955028301675  0.1682656628138459  0.14039859754461273  1.0000
  H   H14       1.0  0.6057304497928793  0.8317343367884121  0.8596014024677726  1.0000
  H   H15       1.0  0.8604705078959494  0.3866831503762102  0.11895207738949284  1.0000
  H   H16       1.0  0.1395294918214145  0.6133168504074893  0.8810479226039357  1.0000
  H   H17       1.0  0.24016416678395028  0.47067433869767966  0.24983780406998435  1.0000
  H   H18       1.0  0.7598358332919459  0.5293256609045784  0.750162195942401  1.0000
  H   H19       1.0  0.07830830987978735  0.6109087811196232  0.23542863910326178  1.0000
  H   H20       1.0  0.9216916901961086  0.3890912184826349  0.7645713609091236  1.0000
  H   H21       1.0  0.11535860964612571  0.41277980721982427  0.21118046826439416  1.0000
  H   H22       1.0  0.8846413904297705  0.5872201923824337  0.7888195317479912  1.0000
  H   H23       1.0  0.10424664169542426  0.5672151855893276  0.538113259468455  1.0000
  H   H24       1.0  0.8957533583804719  0.4327848140129304  0.4618867405439305  1.0000
  H   H25       1.0  0.1317137657101946  0.3621415903520072  0.5187838693426369  1.0000
  H   H26       1.0  0.8682862343657016  0.6378584092502508  0.48121613066974844  1.0000
  H   H27       1.0  0.07712470493560199  0.19828795262815804  0.8979171183860308  1.0000
  H   H28       1.0  0.9228752961188088  0.8017120469713049  0.1020828812611651  1.0000
  H   H29       1.0  0.030608426022960107  0.11571668349127599  0.7678257231539701  1.0000
  H   H30       1.0  0.9693915736944038  0.8842833172924236  0.23217427683945854  1.0000
  C   C1        1.0  0.45470699868280656  0.595373775458334  0.2912248198563484  1.0000
  C   C2        1.0  0.5452930010345571  0.4046262253253656  0.7087751801370803  1.0000
  C   C3        1.0  0.5487798909942934  0.6729098128954615  0.2966540919378211  1.0000
  C   C4        1.0  0.4512201087230705  0.32709018788823824  0.7033459080556076  1.0000
  C   C5        1.0  0.4909910444836967  0.8265758568429259  0.3684132707716572  1.0000
  C   C6        1.0  0.5090089555921994  0.17342414275933218  0.6315867292407282  1.0000
  C   C7        1.0  0.3481792905510416  0.894721158993726  0.4283750359410417  1.0000
  C   C8        1.0  0.6518207095248547  0.10527884060853204  0.5716249640713437  1.0000
  C   C9        1.0  0.2639445437012108  0.8082528738812162  0.41608611001421547  1.0000
  C   C10       1.0  0.7360554563746854  0.1917471257210418  0.58391388999817  1.0000
  C   C11       1.0  0.6955915027735089  0.5952289236468942  0.2316061101959006  1.0000
  C   C12       1.0  0.3044084973023871  0.40477107595536377  0.7683938898164848  1.0000
  C   C13       1.0  0.5108809343114229  0.43734559438760306  0.2192577732750231  1.0000
  C   C14       1.0  0.48911906576447334  0.5626544052146549  0.7807422267373624  1.0000
  C   C15       1.0  0.6578921334917591  0.36226464250897966  0.15938603048404454  1.0000
  C   C16       1.0  0.34210786658413717  0.6377353570932783  0.8406139695283409  1.0000
  C   C17       1.0  0.7084106957468819  0.20687330381899552  0.09399848200714979  1.0000
  C   C18       1.0  0.2915893043290143  0.7931266957832626  0.9060015180052357  1.0000
  C   C19       1.0  0.6149866126136576  0.1347576234918946  0.08820031010816592  1.0000
  C   C20       1.0  0.38501338710370625  0.865242377291805  0.9117996898852628  1.0000
  C   C21       1.0  0.4716192340172031  0.21976685905800852  0.1462621919158554  1.0000
  C   C22       1.0  0.5283807660586929  0.7802331405442494  0.8537378080965301  1.0000
  C   C23       1.0  0.748216538706034  0.44538638573246736  0.16651252045390869  1.0000
  C   C24       1.0  0.251783461369862  0.5546136138697908  0.8334874795584767  1.0000
  C   C25       1.0  0.07807125642955293  0.4825421973204152  0.47586343648532736  1.0000
  C   C26       1.0  0.9219287432878108  0.5174578034632843  0.5241365635081012  1.0000
  N   N1        1.0  0.31461554381252  0.6633195638100408  0.3503648045652796  1.0000
  N   N2        1.0  0.6853844562633762  0.3366804357922173  0.6496351954471059  1.0000
  N   N3        1.0  0.42094714398967636  0.3654698147516796  0.21004460539531436  1.0000
  N   N4        1.0  0.5790528560862199  0.6345301848505783  0.7899553946170712  1.0000
  N   N5        1.0  0.13057669199016778  0.49640765378967816  0.27830650849550176  1.0000
  N   N6        1.0  0.8694233077271961  0.5035923469940213  0.7216934914979269  1.0000
  N   N7        1.0  0.06933429841626362  0.15213913420082675  0.22060572897781117  1.0000
  N   N8        1.0  0.9306657016596326  0.8478608654014314  0.7793942710345743  1.0000
  O   O1        1.0  0.06812496609723212  0.16277772753114628  0.38146956876996524  1.0000
  O   O2        1.0  0.9318750336201317  0.8372222732525535  0.6185304312234635  1.0000
  O   O3        1.0  0.1126229819685967  0.24580995273220554  0.09932965662055948  1.0000
  O   O4        1.0  0.8873770181072994  0.7541900468700524  0.900670343391826  1.0000
  O   O5        1.0  0.028758729491076513  0.05357640511758898  0.16883962525124177  1.0000
  O   O6        1.0  0.9712412705848198  0.9464235944846691  0.8311603747611436  1.0000
  O   O7        1.0  0.05647964470796072  0.20743136580973703  0.7782187367895189  1.0000
  O   O8        1.0  0.943520355009403  0.7925686349739627  0.2217812632039097  1.0000
