data_image0
_chemical_formula_structural       H64C76N8O8Br4
_chemical_formula_sum              "H64 C76 N8 O8 Br4"
_cell_length_a       9.54432081745167
_cell_length_b       9.703694551035877
_cell_length_c       17.48953306634442
_cell_angle_alpha    91.39034164478014
_cell_angle_beta     101.22661263989916
_cell_angle_gamma    93.39879735216739

_space_group_name_H-M_alt    "P 1"
_space_group_IT_number       1

loop_
  _space_group_symop_operation_xyz
  'x, y, z'

loop_
  _atom_site_type_symbol
  _atom_site_label
  _atom_site_symmetry_multiplicity
  _atom_site_fract_x
  _atom_site_fract_y
  _atom_site_fract_z
  _atom_site_occupancy
  H   H1        1.0  0.15455731590585714  0.7659425182932245  0.11042568980980408  1.0000
  H   H2        1.0  0.8454426838684151  0.23405748100477475  0.8895743101134596  1.0000
  H   H3        1.0  0.1459242350846049  0.8658401692067054  0.025581829926504603  1.0000
  H   H4        1.0  0.8540757646896674  0.13415983009129384  0.9744181699967591  1.0000
  H   H5        1.0  0.0016104701831203452  0.7437314769526354  0.03255536709655079  1.0000
  H   H6        1.0  0.9983895296476322  0.25626852337759765  0.9674446328251514  1.0000
  H   H7        1.0  0.8674367541968797  0.1454029145345599  0.11826194404529027  1.0000
  H   H8        1.0  0.13256324557739255  0.8545970847634394  0.8817380558779734  1.0000
  H   H9        1.0  0.5967357903414157  0.9964676911225633  0.07133293900962806  1.0000
  H   H10       1.0  0.40326420948933683  0.0035323092076697186  0.928667060912074  1.0000
  H   H11       1.0  0.2756996232213537  0.01417747578246835  0.10904336274398  1.0000
  H   H12       1.0  0.7243003765529186  0.985822523515531  0.8909566371792838  1.0000
  H   H13       1.0  0.4371016038089763  0.13693301383128303  0.21905869846484557  1.0000
  H   H14       1.0  0.562898395965296  0.8630669854667162  0.7809413014584181  1.0000
  H   H15       1.0  0.09420484428357363  0.1365917643926044  0.3474199195738106  1.0000
  H   H16       1.0  0.9057951565955039  0.8634082359427889  0.6525800803486888  1.0000
  H   H17       1.0  0.07156188748278018  0.8496298198973705  0.3460980928402992  1.0000
  H   H18       1.0  0.9284381123479722  0.15037018043286238  0.6539019070814028  1.0000
  H   H19       1.0  0.03211537721022298  0.7659258864200532  0.4728882865500844  1.0000
  H   H20       1.0  0.9678846226205295  0.23407411391017965  0.5271117133716177  1.0000
  H   H21       1.0  0.8098357970216629  0.8185322309272957  0.5200375514618724  1.0000
  H   H22       1.0  0.19016420385741462  0.18146776940809778  0.47996244846062697  1.0000
  H   H23       1.0  0.6290079021576945  0.9561991229752398  0.4388604860160267  1.0000
  H   H24       1.0  0.3709920976730578  0.043800877354993266  0.5611395139056754  1.0000
  H   H25       1.0  0.6683527852674386  0.03807875387611118  0.3103950837203372  1.0000
  H   H26       1.0  0.3316472147724139  0.9619212464946555  0.6896049167846773  1.0000
  H   H27       1.0  0.3629917545955889  0.295548149146468  0.1171999719990884  1.0000
  H   H28       1.0  0.6370082451786835  0.7044518501515313  0.8828000279241753  1.0000
  H   H29       1.0  0.4472886342058619  0.3301514487990991  0.036658126798048696  1.0000
  H   H30       1.0  0.5527113656248904  0.669848551531134  0.9633418731236533  1.0000
  H   H31       1.0  0.2813755964378236  0.4015993383370301  0.041757215345872734  1.0000
  H   H32       1.0  0.7186244033364486  0.5984006609609692  0.9582427845773909  1.0000
  H   H33       1.0  0.6205374256070308  0.7430662868662481  0.1447638052091602  1.0000
  H   H34       1.0  0.37946257422372154  0.25693371346398497  0.8552361947125418  1.0000
  H   H35       1.0  0.4073734237926658  0.8363528928525973  0.033928575641170966  1.0000
  H   H36       1.0  0.5926265760380865  0.16364710747763567  0.9660714242805309  1.0000
  H   H37       1.0  0.6286031054852271  0.2917657731267835  0.13939426046625686  1.0000
  H   H38       1.0  0.3713968942890451  0.7082342261712158  0.8606057394570068  1.0000
  H   H39       1.0  0.8161304771230683  0.25631026091755443  0.25421483211200246  1.0000
  H   H40       1.0  0.1838695228603041  0.7436897384209785  0.7457851683945738  1.0000
  H   H41       1.0  0.7096343224142192  0.6255005867744795  0.3662961102336783  1.0000
  H   H42       1.0  0.2903656773600531  0.3744994125235198  0.6337038896895854  1.0000
  H   H43       1.0  0.45105386570151285  0.4943758062773  0.3646188617177124  1.0000
  H   H44       1.0  0.5489461340727596  0.5056241930206994  0.6353811382055513  1.0000
  H   H45       1.0  0.35407233612054406  0.5276981128854321  0.4843907067915037  1.0000
  H   H46       1.0  0.6459276637102083  0.47230188744480084  0.5156092931301982  1.0000
  H   H47       1.0  0.2814320163293111  0.7603087406471092  0.5198112120299314  1.0000
  H   H48       1.0  0.7185679835014414  0.23969125968312394  0.48018878789177066  1.0000
  H   H49       1.0  0.3019120521919171  0.9556235132077073  0.43181885492483124  1.0000
  H   H50       1.0  0.6980879476388353  0.04437648712252564  0.5681811449968708  1.0000
  H   H51       1.0  0.39471255866424093  0.918224630430154  0.3097777560855491  1.0000
  H   H52       1.0  0.6052874413756115  0.08177536994061263  0.6902222444194654  1.0000
  H   H53       1.0  0.12387573551180876  0.6315331262534589  0.2970117505276883  1.0000
  H   H54       1.0  0.8761242642624635  0.36846687304454034  0.7029882493955754  1.0000
  H   H55       1.0  0.9010410069401447  0.7185111578046466  0.21974107449768993  1.0000
  H   H56       1.0  0.09895899283412776  0.2814888414933528  0.7802589254255737  1.0000
  H   H57       1.0  0.7863891444834104  0.6015152611687027  0.09270041359698424  1.0000
  H   H58       1.0  0.21361085534734206  0.39848473916153027  0.9072995863247179  1.0000
  H   H59       1.0  0.887987117540967  0.3968855899167938  0.0450448555746773  1.0000
  H   H60       1.0  0.11201288223330516  0.6031144093812055  0.9549551443485863  1.0000
  H   H61       1.0  0.11011227873297358  0.3070151803624169  0.1228655152582073  1.0000
  H   H62       1.0  0.889887722355204  0.6929848200135102  0.8771344852476045  1.0000
  H   H63       1.0  0.2280069616811203  0.426699203071199  0.24868925854065244  1.0000
  H   H64       1.0  0.7719930380931519  0.5733007962268003  0.7513107413826112  1.0000
  C   C1        1.0  0.08300823676367751  0.818112347850254  0.06524141557476167  1.0000
  C   C2        1.0  0.9169917632761749  0.18188765252051264  0.9347585849302529  1.0000
  C   C3        1.0  0.8666768169128386  0.9352242426044599  0.0722436500734643  1.0000
  C   C4        1.0  0.13332318291791392  0.06477575772577304  0.9277563498482378  1.0000
  C   C5        1.0  0.7974610904605558  0.04909628064514835  0.11264034393178558  1.0000
  C   C6        1.0  0.20253890937019664  0.9509037196850847  0.8873596559899164  1.0000
  C   C7        1.0  0.8935603163654794  0.9966057666908816  0.24263939011587404  1.0000
  C   C8        1.0  0.10643968346527298  0.0033942336393514515  0.757360609805828  1.0000
  C   C9        1.0  0.04015920068574699  0.03871956361945825  0.2327745467217877  1.0000
  C   C10       1.0  0.9598407991450052  0.9612804367107748  0.7672254531999143  1.0000
  C   C11       1.0  0.09151708248709346  0.004079108822965445  0.16446318474097962  1.0000
  C   C12       1.0  0.9084829173436589  0.9959208915072675  0.8355368151807224  1.0000
  C   C13       1.0  0.23431110750657583  0.042031870190244645  0.16058075498740806  1.0000
  C   C14       1.0  0.7656888923241765  0.9579681301399884  0.839419244934294  1.0000
  C   C15       1.0  0.3257591332951478  0.11216821995678955  0.22248284354048745  1.0000
  C   C16       1.0  0.6742408664791245  0.8878317793412099  0.7775171563827763  1.0000
  C   C17       1.0  0.27452628048997335  0.1454261832045163  0.2897382306313388  1.0000
  C   C18       1.0  0.7254737192842989  0.854573816093483  0.710261769291925  1.0000
  C   C19       1.0  0.13393083267046718  0.11073487797068281  0.29498989813467047  1.0000
  C   C20       1.0  0.8660691671038052  0.8892651213273165  0.7050101017885932  1.0000
  C   C21       1.0  0.8725632244251366  0.9501112151801149  0.3200655943630341  1.0000
  C   C22       1.0  0.12743677540561582  0.04988878515011819  0.6799344055586678  1.0000
  C   C23       1.0  0.9747769106640246  0.8736168943308799  0.36650268829861804  1.0000
  C   C24       1.0  0.025223089110247784  0.1263831049671194  0.6334973116246456  1.0000
  C   C25       1.0  0.9524659422117391  0.8264294769104855  0.43799849384534884  1.0000
  C   C26       1.0  0.047534057562533386  0.17357052238751386  0.5620015060779148  1.0000
  C   C27       1.0  0.8283353511318012  0.8561855948923849  0.4643665288351889  1.0000
  C   C28       1.0  0.1716646486424711  0.14381440440561447  0.5356334710880747  1.0000
  C   C29       1.0  0.726342038168143  0.9331740573896959  0.4187452952121881  1.0000
  C   C30       1.0  0.2736579616061293  0.06682594190830343  0.5812547047110755  1.0000
  C   C31       1.0  0.7476674299255243  0.9791540536783992  0.34679395857443857  1.0000
  C   C32       1.0  0.2523325698487481  0.020845945619600022  0.6532060413488251  1.0000
  C   C33       1.0  0.3832017640197952  0.37323048715902196  0.07584457186956589  1.0000
  C   C34       1.0  0.6167982360200573  0.6267695132117447  0.9241554286354486  1.0000
  C   C35       1.0  0.4283527014391432  0.621282637535808  0.0858585739535319  1.0000
  C   C36       1.0  0.5716472983916091  0.3787173627944249  0.9141414259681702  1.0000
  C   C37       1.0  0.5032246360686036  0.7520910404719068  0.13051978531145558  1.0000
  C   C38       1.0  0.49677536376214865  0.2479089598583261  0.8694802146102464  1.0000
  C   C39       1.0  0.4860172905636221  0.6862656859994568  0.2566740365812629  1.0000
  C   C40       1.0  0.5139827092106501  0.3137343132985425  0.7433259633420007  1.0000
  C   C41       1.0  0.5818970961110076  0.5728823893924971  0.2522218902386693  1.0000
  C   C42       1.0  0.4181029037197449  0.4271176109377358  0.7477781096830328  1.0000
  C   C43       1.0  0.5616410639013582  0.4804751780454212  0.18659139991364945  1.0000
  C   C44       1.0  0.43835893592939423  0.5195248222848117  0.8134086000080526  1.0000
  C   C45       1.0  0.6443571701391575  0.36472262176050957  0.18920745434172875  1.0000
  C   C46       1.0  0.3556428296351149  0.6352773775374897  0.8107925455815349  1.0000
  C   C47       1.0  0.7505132073307209  0.3442331680288839  0.2537399941525514  1.0000
  C   C48       1.0  0.24948679244355143  0.6557668312691155  0.7462600057707122  1.0000
  C   C49       1.0  0.7753175495563345  0.44034782609621526  0.31636549956856513  1.0000
  C   C50       1.0  0.22468245048351798  0.5596521742745514  0.6836345009364494  1.0000
  C   C51       1.0  0.691390366288889  0.5520964385049587  0.3166952863853474  1.0000
  C   C52       1.0  0.30860963459018864  0.4479035618304347  0.6833047135371519  1.0000
  C   C53       1.0  0.4312384413671393  0.7052589626051519  0.32975516371241087  1.0000
  C   C54       1.0  0.5687615595119383  0.2947410377302416  0.6702448362100885  1.0000
  C   C55       1.0  0.4198206762009152  0.5959655841114886  0.3796175825624114  1.0000
  C   C56       1.0  0.5801793236298374  0.4040344162187445  0.6203824173592907  1.0000
  C   C57       1.0  0.3648679757554293  0.6147774294555908  0.44721178528176503  1.0000
  C   C58       1.0  0.6351320240753231  0.38522257087464234  0.552788214639937  1.0000
  C   C59       1.0  0.3230991693230687  0.744495909968369  0.4666635351680015  1.0000
  C   C60       1.0  0.6769008305076837  0.25550409036186406  0.5333364647537006  1.0000
  C   C61       1.0  0.33418580825989247  0.8540538293672092  0.41713925702151594  1.0000
  C   C62       1.0  0.6658141915708601  0.14594617096302384  0.5828607429001861  1.0000
  C   C63       1.0  0.38639692958523353  0.8343556206588474  0.34905938502563166  1.0000
  C   C64       1.0  0.613603070245519  0.16564437967138557  0.6509406148960704  1.0000
  C   C65       1.0  0.07265318147665381  0.5806565403617863  0.24156463741297482  1.0000
  C   C66       1.0  0.9273468182976184  0.419343458936213  0.7584353625102889  1.0000
  C   C67       1.0  0.9480019695542118  0.629535417223142  0.1980712603317262  1.0000
  C   C68       1.0  0.05199803027654073  0.3704645831070911  0.8019287395899759  1.0000
  C   C69       1.0  0.8830652622145955  0.5634712731664185  0.1272129285569479  1.0000
  C   C70       1.0  0.11693473755967697  0.43652872613158067  0.8727870713663157  1.0000
  C   C71       1.0  0.9414562739428852  0.44783754439223333  0.09994490574759755  1.0000
  C   C72       1.0  0.05854372588786734  0.5521624559379997  0.9000550941741045  1.0000
  C   C73       1.0  0.06518824388241884  0.398054066425482  0.14378341357743854  1.0000
  C   C74       1.0  0.9348117559483337  0.6019459339047509  0.8562165863442636  1.0000
  C   C75       1.0  0.13121553102523245  0.46503530161998285  0.21437960513294346  1.0000
  C   C76       1.0  0.868784469853845  0.5349646987154105  0.7856203947895559  1.0000
  N   N1        1.0  0.009159083768374522  0.9209924846197438  0.10251634689437879  1.0000
  N   N2        1.0  0.9908409160623778  0.07900751571048939  0.8974836530273232  1.0000
  N   N3        1.0  0.7813069217662656  0.9982409536092486  0.18765449104418083  1.0000
  N   N4        1.0  0.2186930780644868  0.0017590467209843245  0.8123455088775212  1.0000
  N   N5        1.0  0.45580131214257147  0.4971537062539597  0.11917183460574976  1.0000
  N   N6        1.0  0.5441986876317009  0.5028462930440396  0.8808281653175138  1.0000
  N   N7        1.0  0.44536314412043393  0.7679658345220057  0.20045837577291023  1.0000
  N   N8        1.0  0.5546368556538384  0.23203416477599362  0.7995416241503535  1.0000
  O   O1        1.0  0.7977393257626776  0.8620762330008495  0.017479270704542457  1.0000
  O   O2        1.0  0.2022606742771748  0.13792376736991724  0.9825207298004719  1.0000
  O   O3        1.0  0.664128583206607  0.07858722591134502  0.06884779828595104  1.0000
  O   O4        1.0  0.33587141683324556  0.9214127744594218  0.9311522022190634  1.0000
  O   O5        1.0  0.3441320026378123  0.6318844303900727  0.023076648167995092  1.0000
  O   O6        1.0  0.6558679971929401  0.3681155699401603  0.976923351753707  1.0000
  O   O7        1.0  0.47448711113276254  0.8664127316380916  0.08299288286599589  1.0000
  O   O8        1.0  0.5255128886415098  0.1335872676599076  0.9170071170572678  1.0000
  Br  Br1       1.0  0.40544605195484207  0.22471991810754122  0.3786013008537841  1.0000
  Br  Br2       1.0  0.5945539478194303  0.7752800811904581  0.6213986990694796  1.0000
  Br  Br3       1.0  0.9274774402540491  0.4194044702528573  0.4028032923354289  1.0000
  Br  Br4       1.0  0.07252255952022309  0.5805955290451421  0.5971967075878347  1.0000
