data_image0
_chemical_formula_structural       H56C56N8O16
_chemical_formula_sum              "H56 C56 N8 O16"
_cell_length_a       5.346800608908115
_cell_length_b       26.15723937038408
_cell_length_c       9.237045595990516
_cell_angle_alpha    90.0
_cell_angle_beta     105.15754716028101
_cell_angle_gamma    90.0

_space_group_name_H-M_alt    "P 1"
_space_group_IT_number       1

loop_
  _space_group_symop_operation_xyz
  'x, y, z'

loop_
  _atom_site_type_symbol
  _atom_site_label
  _atom_site_symmetry_multiplicity
  _atom_site_fract_x
  _atom_site_fract_y
  _atom_site_fract_z
  _atom_site_occupancy
  H   H1        1.0  0.5313634005933691  0.04082822559666467  0.1749263915709926  1.0000
  H   H2        1.0  0.9686365996751344  0.5408282253981713  0.32507360840801336  1.0000
  H   H3        1.0  0.46863660025266246  0.959171774388652  0.8250736093130231  1.0000
  H   H4        1.0  0.03136339922618237  0.4591717745871453  0.6749263911030076  1.0000
  H   H5        1.0  0.6444940393054627  0.11492228546883772  0.7849713994013578  1.0000
  H   H6        1.0  0.8555059619565457  0.6149222852703443  0.7150286008410104  1.0000
  H   H7        1.0  0.3555059615335299  0.8850777145164788  0.2150286003990024  1.0000
  H   H8        1.0  0.14449403888948584  0.3850777147149722  0.2849714000430054  1.0000
  H   H9        1.0  0.20237148347648823  0.120221074000663  0.8673482688075613  1.0000
  H   H10       1.0  0.2976285160023566  0.620221074184473  0.6326517316084694  1.0000
  H   H11       1.0  0.7976285173625044  0.8797789259846536  0.132651730992799  1.0000
  H   H12       1.0  0.7023714829059992  0.3797789258008436  0.367348268986207  1.0000
  H   H13       1.0  0.09121260924828493  0.15378298768617094  0.08743660987212988  1.0000
  H   H14       1.0  0.4087873911747309  0.6537829874876775  0.41256339056987795  1.0000
  H   H15       1.0  0.9087873915907076  0.846217012681449  0.9125633899282304  1.0000
  H   H16       1.0  0.5912126096713007  0.34621701249763903  0.5874366103141376  1.0000
  H   H17       1.0  0.12178476089151738  0.22652299793948008  0.26481971308498725  1.0000
  H   H18       1.0  0.3782152395244594  0.72652299812329  0.23518028627336515  1.0000
  H   H19       1.0  0.8782152399474752  0.7734770020458364  0.7351802867153729  1.0000
  H   H20       1.0  0.6217847613145332  0.2734770018620265  0.7648197135269952  1.0000
  H   H21       1.0  0.4588331042660787  0.293272389390049  0.2816546759402098  1.0000
  H   H22       1.0  0.04116689421222236  0.7932723895738589  0.21834532312880323  1.0000
  H   H23       1.0  0.5411668946352383  0.7067276105952676  0.718345323570811  1.0000
  H   H24       1.0  0.9588331046890944  0.20672761041145757  0.7816546763822176  1.0000
  H   H25       1.0  0.7700205483767905  0.28650732418212216  0.12462885370715794  1.0000
  H   H26       1.0  0.7299794518917131  0.7865073239836287  0.375371146271848  1.0000
  H   H27       1.0  0.22997945052452634  0.7134926758031944  0.8753711458038629  1.0000
  H   H28       1.0  0.2700205489472795  0.21349267600168778  0.6246288535285123  1.0000
  H   H29       1.0  0.7432637050469664  0.2123277782244973  0.950892573696459  1.0000
  H   H30       1.0  0.7567362962150421  0.7123277780260039  0.5491074265459092  1.0000
  H   H31       1.0  0.2567362957920263  0.7876722217608192  0.049107426103901286  1.0000
  H   H32       1.0  0.24326370462395058  0.28767222195931264  0.45089257325445115  1.0000
  H   H33       1.0  0.07077183461860916  0.9797940725739392  0.8877195159474338  1.0000
  H   H34       1.0  0.4292281667979115  0.47979407239012933  0.6122804847579361  1.0000
  H   H35       1.0  0.9292281662203835  0.020205927411377257  0.11228048385292644  1.0000
  H   H36       1.0  0.5707718340481202  0.5202059275951871  0.3877195161260796  1.0000
  H   H37       1.0  0.8450581293975556  0.028546573643602205  0.8060414418688269  1.0000
  H   H38       1.0  0.654941869926777  0.5285465734451088  0.6939585580842019  1.0000
  H   H39       1.0  0.15494186950376118  0.9714534263417143  0.19395855764219405  1.0000
  H   H40       1.0  0.3450581289745399  0.4714534265402078  0.306041441426819  1.0000
  H   H41       1.0  0.5983565176990888  0.1484405313198381  0.5318777688061549  1.0000
  H   H42       1.0  0.9016434835629196  0.648440531503648  0.9681222314362132  1.0000
  H   H43       1.0  0.4016434831399039  0.8515594686654784  0.46812223099420536  1.0000
  H   H44       1.0  0.09835651727607296  0.3515594684816685  0.03187776836414699  1.0000
  H   H45       1.0  0.7786785934733296  0.16425367291873025  0.3128929863172438  1.0000
  H   H46       1.0  0.7213214067951739  0.6642536727202368  0.1871070136617622  1.0000
  H   H47       1.0  0.22132140542798723  0.8357463270665862  0.6871070131937771  1.0000
  H   H48       1.0  0.27867859405085765  0.3357463272650797  0.8128929872222536  1.0000
  H   H49       1.0  0.16310461635802198  0.11130510596987551  0.2883845651012191  1.0000
  H   H50       1.0  0.3368953840649938  0.6113051061536855  0.21161543534078872  1.0000
  H   H51       1.0  0.836895382543295  0.888694894015441  0.7116154344098018  1.0000
  H   H52       1.0  0.6631046167739989  0.388694893831631  0.7883845644595715  1.0000
  H   H53       1.0  0.3387942873937032  0.04488385235826058  0.48554266382979683  1.0000
  H   H54       1.0  0.16120571302931258  0.5448838521597672  0.014457336612210972  1.0000
  H   H55       1.0  0.6612057134452894  0.9551161476270559  0.5144573359705634  1.0000
  H   H56       1.0  0.8387942878167189  0.4551161478255493  0.9855426642718046  1.0000
  C   C1        1.0  0.5462499911974881  0.08739158814244681  0.006376696433156351  1.0000
  C   C2        1.0  0.9537500090710155  0.5873915879439534  0.49362330354584966  1.0000
  C   C3        1.0  0.4537500096485435  0.9126084118428697  0.9936233044508593  1.0000
  C   C4        1.0  0.04624998983030138  0.41260841204136317  0.5063766959651713  1.0000
  C   C5        1.0  0.40761706529433983  0.1317345156806356  0.9098697467064608  1.0000
  C   C6        1.0  0.09238293418450504  0.6317345158644455  0.5901302537095698  1.0000
  C   C7        1.0  0.592382933606977  0.868265484304681  0.09013025280456011  1.0000
  C   C8        1.0  0.9076170666615266  0.368265484120871  0.4098697471744459  1.0000
  C   C9        1.0  0.41841001046492404  0.1781939597676878  0.010108285599984883  1.0000
  C   C10       1.0  0.0815899899580918  0.6781939595691945  0.489891714842023  1.0000
  C   C11       1.0  0.5815899903740686  0.8218060402176287  0.9898917142003753  1.0000
  C   C12       1.0  0.9184100108879398  0.3218060404161221  0.5101082860419927  1.0000
  C   C13       1.0  0.24256397081703998  0.18251709105837108  0.09799317025850361  1.0000
  C   C14       1.0  0.2574360295989368  0.6825170908598777  0.40200682909984886  1.0000
  C   C15       1.0  0.7574360300219526  0.8174829089269454  0.9020068295418566  1.0000
  C   C16       1.0  0.7425639712400558  0.3174829091254388  0.5979931707005114  1.0000
  C   C17       1.0  0.2592712460762738  0.2234304816056812  0.19667081952001578  1.0000
  C   C18       1.0  0.240728754346742  0.7234304817894911  0.30332918092199207  1.0000
  C   C19       1.0  0.7407287547627188  0.7765695183796353  0.8033291802803445  1.0000
  C   C20       1.0  0.7592712464992896  0.27656951819582537  0.6966708199620236  1.0000
  C   C21       1.0  0.4485779772732362  0.26093793551195305  0.206101100437618  1.0000
  C   C22       1.0  0.05142202314977957  0.760937935695763  0.2938989000043899  1.0000
  C   C23       1.0  0.5514220235727954  0.7390620644733634  0.7938989004463977  1.0000
  C   C24       1.0  0.9485779757515374  0.23906206428955354  0.706101099506631  1.0000
  C   C25       1.0  0.6221257838125217  0.2572174943514006  0.11698785525165864  1.0000
  C   C26       1.0  0.8778742164559818  0.7572174945352106  0.3830121447273474  1.0000
  C   C27       1.0  0.3778742150887952  0.742782505633916  0.8830121442593623  1.0000
  C   C28       1.0  0.12212578439004965  0.24278250583240935  0.6169878561566683  1.0000
  C   C29       1.0  0.6076419884305709  0.21578178301149686  0.019795080246388177  1.0000
  C   C30       1.0  0.8923580118379327  0.7157817831953067  0.48020491973261786  1.0000
  C   C31       1.0  0.39235801241546064  0.7842182169738197  0.9802049206376277  1.0000
  C   C32       1.0  0.10764198706338426  0.28421821679000975  0.5197950797784031  1.0000
  C   C33       1.0  0.15306146164491943  0.02053845179886472  0.7178852523513481  1.0000
  C   C34       1.0  0.34693853782688644  0.5205384516003713  0.7821147469810269  1.0000
  C   C35       1.0  0.8469385372563975  0.9794615481864518  0.2821147471596727  1.0000
  C   C36       1.0  0.6530614610744304  0.4794615483849452  0.21788525252999394  1.0000
  C   C37       1.0  0.05404570167861996  0.061693427855659254  0.6051805488622034  1.0000
  C   C38       1.0  0.44595429779318596  0.5616934280394692  0.8948194504701719  1.0000
  C   C39       1.0  0.9459542972226969  0.9383065721296573  0.3948194506488175  1.0000
  C   C40       1.0  0.5540457030458067  0.4383065719458473  0.10518054933018847  1.0000
  C   C41       1.0  0.7606180832286601  0.12576599783403272  0.516427704864102  1.0000
  C   C42       1.0  0.7393819180333484  0.6257659976355394  0.9835722953782661  1.0000
  C   C43       1.0  0.23938191761033262  0.8742340021512838  0.48357229493625814  1.0000
  C   C44       1.0  0.26061808280564425  0.3742340023497772  0.016427704422094246  1.0000
  C   C45       1.0  0.8640288148331311  0.13475979326744378  0.39432796319433033  1.0000
  C   C46       1.0  0.6359711854353726  0.6347597934512538  0.10567203678467561  1.0000
  C   C47       1.0  0.13597118407522485  0.8652402067178728  0.6056720374003459  1.0000
  C   C48       1.0  0.36402881540362003  0.3652402065340628  0.8943279630156846  1.0000
  C   C49       1.0  0.07524751789825988  0.1057069804212829  0.3811463778234196  1.0000
  C   C50       1.0  0.4247524825247559  0.6057069806050929  0.11885362261858827  1.0000
  C   C51       1.0  0.924752481003057  0.8942930195640336  0.6188536216876014  1.0000
  C   C52       1.0  0.5752475183212757  0.3942930193802237  0.8811463782654274  1.0000
  C   C53       1.0  0.17369023466935876  0.06864747439796946  0.4894539640567454  1.0000
  C   C54       1.0  0.32630976574661813  0.5686474741994761  0.010546035301607005  1.0000
  C   C55       1.0  0.826309764231958  0.931352525587347  0.5105460354542756  1.0000
  C   C56       1.0  0.6736902350923746  0.4313525257858405  0.9894539644987534  1.0000
  N   N1        1.0  0.009186076279225946  0.00832864687726414  0.809710228711184  1.0000
  N   N2        1.0  0.4908139251302558  0.5083286470610741  0.6902897709105306  1.0000
  N   N3        1.0  0.9908139245597668  0.9916713531080524  0.19028977108917627  1.0000
  N   N4        1.0  0.5091860757087369  0.49167135292424247  0.30971022888982974  1.0000
  N   N5        1.0  0.8508947193924596  0.08984085540237552  0.620302394309281  1.0000
  N   N6        1.0  0.6491052818695487  0.5898408552038821  0.8796976059330871  1.0000
  N   N7        1.0  0.14910528144653293  0.910159144582941  0.3796976054910791  1.0000
  N   N8        1.0  0.35089471896944385  0.4101591447814344  0.12030239386727325  1.0000
  O   O1        1.0  0.42814797937038607  0.0706062632928714  0.10459191501130763  1.0000
  O   O2        1.0  0.07185202104559078  0.5706062634766814  0.3954080843470448  1.0000
  O   O3        1.0  0.5718520214686066  0.9293937366924452  0.8954080847890528  1.0000
  O   O4        1.0  0.9281479797934019  0.4293937365086352  0.6045919154533155  1.0000
  O   O5        1.0  0.7537732852989708  0.07062686179687905  0.9889322994401127  1.0000
  O   O6        1.0  0.7462267140253618  0.5706268615983857  0.511067700512916  1.0000
  O   O7        1.0  0.2462267155400218  0.9293731381884375  0.011067700360247505  1.0000
  O   O8        1.0  0.2537732848759551  0.42937313838693086  0.488932298998105  1.0000
  O   O9        1.0  0.5176814798631904  0.14181920108129248  0.7896112422391041  1.0000
  O   O10       1.0  0.9823185213988181  0.6418192008827991  0.710388758003264  1.0000
  O   O11       1.0  0.48231852098284134  0.8581807989040241  0.21038875864491163  1.0000
  O   O12       1.0  0.017681479440174536  0.3581807991025175  0.2896112417970962  1.0000
  O   O13       1.0  0.36594423571143847  0.9987903960377447  0.7194026139788008  1.0000
  O   O14       1.0  0.13405576376740636  0.49879039585393464  0.78059738643723  1.0000
  O   O15       1.0  0.6340557631898784  0.0012096039475719114  0.2805973855322202  1.0000
  O   O16       1.0  0.8659442351409495  0.5012096041313818  0.21940261415744647  1.0000
