data_image0
_chemical_formula_structural       H96C76N16O8S4
_chemical_formula_sum              "H96 C76 N16 O8 S4"
_cell_length_a       10.03644008113766
_cell_length_b       12.473575702960417
_cell_length_c       14.118466127298372
_cell_angle_alpha    90.0
_cell_angle_beta     92.10543808406327
_cell_angle_gamma    90.0

_space_group_name_H-M_alt    "P 1"
_space_group_IT_number       1

loop_
  _space_group_symop_operation_xyz
  'x, y, z'

loop_
  _atom_site_type_symbol
  _atom_site_label
  _atom_site_symmetry_multiplicity
  _atom_site_fract_x
  _atom_site_fract_y
  _atom_site_fract_z
  _atom_site_occupancy
  H   H1        1.0  0.31100019158727715  0.9820733590523408  0.5609634373842785  1.0000
  H   H2        1.0  0.6889998086075512  0.4820733591710083  0.9390365627904252  1.0000
  H   H3        1.0  0.6889998084070567  0.017926640710324116  0.4390365626706968  1.0000
  H   H4        1.0  0.31100019138678253  0.5179266405916566  0.06096343726455004  1.0000
  H   H5        1.0  0.2241704374602985  0.7871359731812706  0.7692640519237152  1.0000
  H   H6        1.0  0.7758295617375096  0.2871359732999382  0.7307359482202395  1.0000
  H   H7        1.0  0.7758295625340352  0.21286402658139425  0.2307359481312602  1.0000
  H   H8        1.0  0.22417043825682414  0.7128640272644214  0.2692640518347358  1.0000
  H   H9        1.0  0.2535957842118493  0.7592933330057213  0.6496039601547108  1.0000
  H   H10       1.0  0.7464042149925897  0.25929333232269425  0.8503960392811404  1.0000
  H   H11       1.0  0.7464042157824844  0.24070666755863818  0.3503960399002645  1.0000
  H   H12       1.0  0.253595785008375  0.7407066674399706  0.14960396006573148  1.0000
  H   H13       1.0  0.13330113763927093  0.8572706916319208  0.6786610721988084  1.0000
  H   H14       1.0  0.8666988615651681  0.35727069094889363  0.8213389272370427  1.0000
  H   H15       1.0  0.8666988623550628  0.1427293089324388  0.32133892785616675  1.0000
  H   H16       1.0  0.13330113842916574  0.6427293088137712  0.17866107281793264  1.0000
  H   H17       1.0  0.8830796212313332  0.011317656088501951  0.8448362309994348  1.0000
  H   H18       1.0  0.11692037897012603  0.5113176559698344  0.6551637684671656  1.0000
  H   H19       1.0  0.11692037876300056  0.9886823444758577  0.15516376905554058  1.0000
  H   H20       1.0  0.8830796210308385  0.4886823445945252  0.3448362308797063  1.0000
  H   H21       1.0  0.0901371989010394  0.0051959375197136014  0.7573926385085175  1.0000
  H   H22       1.0  0.9098628012937889  0.5051959374010461  0.7426073616661863  1.0000
  H   H23       1.0  0.9098628010932944  0.9948040622429511  0.24260736154645782  1.0000
  H   H24       1.0  0.09013719870054478  0.49480406236161883  0.257392638388789  1.0000
  H   H25       1.0  0.08374009087858901  0.04865707672387435  0.5828063505914537  1.0000
  H   H26       1.0  0.916259908319219  0.5486570766052067  0.9171936495525008  1.0000
  H   H27       1.0  0.9162599091157447  0.9513429230387905  0.41719364946352155  1.0000
  H   H28       1.0  0.08374009167511465  0.45134292315745805  0.08280635050247442  1.0000
  H   H29       1.0  0.8742371664636561  0.12151978439031325  0.5077053280629393  1.0000
  H   H30       1.0  0.12576283373117225  0.6215197842716457  0.9922946721117645  1.0000
  H   H31       1.0  0.12576283353067763  0.8784802153723515  0.49229467199203597  1.0000
  H   H32       1.0  0.8742371662631615  0.3784802154910192  0.007705327943210896  1.0000
  H   H33       1.0  0.2897291413540315  0.2988482163230295  0.5890266011506339  1.0000
  H   H34       1.0  0.7102708588407969  0.798848216204362  0.9109733990240699  1.0000
  H   H35       1.0  0.7102708586403023  0.7011517842413302  0.4109733989043415  1.0000
  H   H36       1.0  0.2897291411535369  0.20115178435999764  0.0890266010309054  1.0000
  H   H37       1.0  0.2709073709106809  0.1615304591065898  0.6211728711702881  1.0000
  H   H38       1.0  0.7290926292841475  0.6615304589879222  0.8788271290044158  1.0000
  H   H39       1.0  0.7290926290836529  0.8384695414577698  0.3788271288846873  1.0000
  H   H40       1.0  0.2709073707101862  0.3384695407747426  0.12117287105055959  1.0000
  H   H41       1.0  0.2064533582491693  0.11354809188065057  0.4550706636271093  1.0000
  H   H42       1.0  0.7935466415446698  0.6135480925636777  0.04492933630813755  1.0000
  H   H43       1.0  0.7935466417517953  0.8864519078820143  0.5449293357197625  1.0000
  H   H44       1.0  0.20645335844966392  0.38645190800068185  0.9550706637468378  1.0000
  H   H45       1.0  0.1035968605809071  0.22065702133404802  0.4944263202890573  1.0000
  H   H46       1.0  0.896403139212932  0.7206570212153803  0.005573679646189564  1.0000
  H   H47       1.0  0.8964031394134266  0.7793429792303116  0.505573679765918  1.0000
  H   H48       1.0  0.1035968607880326  0.27934297934897917  0.9944263197006823  1.0000
  H   H49       1.0  0.4151042482145219  0.30895147805014517  0.32211052421361763  1.0000
  H   H50       1.0  0.5848957525763375  0.8089514779314777  0.17788947575237837  1.0000
  H   H51       1.0  0.5848957517798119  0.6910485217125196  0.6778894758413576  1.0000
  H   H52       1.0  0.4151042474246271  0.1910485218311872  0.8221105235944935  1.0000
  H   H53       1.0  0.40412176987213744  0.16982146422515057  0.34992358641397825  1.0000
  H   H54       1.0  0.5958782299217017  0.669821464106483  0.1500764135212686  1.0000
  H   H55       1.0  0.5958782301221963  0.8301785363392089  0.6500764136409971  1.0000
  H   H56       1.0  0.404121770072632  0.3301785364578766  0.8499235865337066  1.0000
  H   H57       1.0  0.582029976638259  0.25052117808194746  0.4502042617641668  1.0000
  H   H58       1.0  0.4179700231555802  0.7505211779632799  0.04979573817108008  1.0000
  H   H59       1.0  0.41797002335607475  0.749478822482412  0.5497957382908085  1.0000
  H   H60       1.0  0.5820299768453845  0.24947882260107968  0.9502042611757918  1.0000
  H   H61       1.0  0.47332237922050946  0.3525710353412328  0.49019724546252313  1.0000
  H   H62       1.0  0.5266776215703499  0.8525710352225652  0.009802754503472864  1.0000
  H   H63       1.0  0.5266776207738243  0.647428964421432  0.5098027545924522  1.0000
  H   H64       1.0  0.4733223784239838  0.14742896454009966  0.9901972455515025  1.0000
  H   H65       1.0  0.17167915393941938  0.15955382781920777  0.2892725331251705  1.0000
  H   H66       1.0  0.8283208458544197  0.6595538277005402  0.21072746681007637  1.0000
  H   H67       1.0  0.8283208460615453  0.840446171943457  0.7107274662217015  1.0000
  H   H68       1.0  0.17167915413991403  0.3404461720621247  0.7892725332448989  1.0000
  H   H69       1.0  0.18942342687909175  0.2977961651460053  0.255386424961875  1.0000
  H   H70       1.0  0.8105765729147473  0.7977961650273377  0.2446135749733718  1.0000
  H   H71       1.0  0.810576573115242  0.7022038354183543  0.7446135750931002  1.0000
  H   H72       1.0  0.18942342707958637  0.2022038347353271  0.7553864250816035  1.0000
  H   H73       1.0  0.05713767778221575  0.25976140660540487  0.32818172636637705  1.0000
  H   H74       1.0  0.9428623220116233  0.7597614064867372  0.17181827356886975  1.0000
  H   H75       1.0  0.9428623222187489  0.7402385939589547  0.6718182729804949  1.0000
  H   H76       1.0  0.05713767798271037  0.24023859327592753  0.8281817264861056  1.0000
  H   H77       1.0  0.6652583042709148  0.05295718531160432  0.8526730632717162  1.0000
  H   H78       1.0  0.3347416959305444  0.5529571859946315  0.6473269361948841  1.0000
  H   H79       1.0  0.334741695723419  0.9470428144510605  0.14732693678325912  1.0000
  H   H80       1.0  0.6652583040704202  0.4470428145697281  0.35267306315198776  1.0000
  H   H81       1.0  0.07247663498381533  0.6415168096587446  0.4235500493173329  1.0000
  H   H82       1.0  0.9275233658070442  0.14151680977741218  0.0764499506486631  1.0000
  H   H83       1.0  0.9275233650105184  0.3584831901039202  0.5764499507376424  1.0000
  H   H84       1.0  0.07247663418728968  0.8584831899852527  0.9235500494063122  1.0000
  H   H85       1.0  0.2314715848149479  0.691845011046179  0.463795889816678  1.0000
  H   H86       1.0  0.7685284159759115  0.19184501116484654  0.03620411014931795  1.0000
  H   H87       1.0  0.7685284151793859  0.3081549887164859  0.5362041102382972  1.0000
  H   H88       1.0  0.23147158401842224  0.8081549885978183  0.9637958899056573  1.0000
  H   H89       1.0  0.11419847050763618  0.6496739101103698  0.5475791967722242  1.0000
  H   H90       1.0  0.8858015296871922  0.14967390942734268  0.9524208034024795  1.0000
  H   H91       1.0  0.8858015294866974  0.3503260904539897  0.452420803282751  1.0000
  H   H92       1.0  0.11419847030714153  0.8503260903353221  0.04757919665249581  1.0000
  H   H93       1.0  0.22212802365990492  0.3555339852507145  0.4135335384249483  1.0000
  H   H94       1.0  0.7778719761339342  0.8555339851320469  0.08646646151029855  1.0000
  H   H95       1.0  0.7778719763344288  0.6444660145119504  0.5864664616300269  1.0000
  H   H96       1.0  0.2221280238603995  0.14446601463061792  0.9135335385446768  1.0000
  C   C1        1.0  0.757891227797604  0.10397915087749683  0.6310594885299863  1.0000
  C   C2        1.0  0.24210877239722436  0.6039791507588292  0.8689405116447174  1.0000
  C   C3        1.0  0.24210877219672977  0.8960208496868628  0.36894051152498897  1.0000
  C   C4        1.0  0.7578912275971094  0.3960208498055303  0.13105948841025788  1.0000
  C   C5        1.0  0.7611627717178042  0.06927542515294277  0.7272279494806964  1.0000
  C   C6        1.0  0.23883722847702415  0.5692754250342752  0.7727720506940073  1.0000
  C   C7        1.0  0.2388372282765296  0.9307245746097221  0.27277205057427895  1.0000
  C   C8        1.0  0.7611627715173096  0.43072457472838965  0.2272279493609679  1.0000
  C   C9        1.0  0.5315259041611168  0.027664076301561452  0.7417054146467732  1.0000
  C   C10       1.0  0.46847409503669124  0.5276640761828939  0.7582945854971814  1.0000
  C   C11       1.0  0.4684740958332168  0.9723359234611034  0.2582945854082021  1.0000
  C   C12       1.0  0.5315259049576425  0.47233592357977094  0.2417054145577939  1.0000
  C   C13       1.0  0.47384508625632765  0.05090210418567536  0.6531619052394292  1.0000
  C   C14       1.0  0.5261549139385007  0.5509021040670078  0.8468380949352746  1.0000
  C   C15       1.0  0.526154913738006  0.9490978963786841  0.34683809481554617  1.0000
  C   C16       1.0  0.473845086055833  0.44909789649735177  0.15316190511970065  1.0000
  C   C17       1.0  0.5266862088812786  0.13723821867643915  0.5940687838566313  1.0000
  C   C18       1.0  0.4733137913201806  0.6372382185577715  0.9059312156099689  1.0000
  C   C19       1.0  0.473313791119686  0.8627617810862257  0.4059312154902405  1.0000
  C   C20       1.0  0.5266862086741531  0.3627617812048933  0.0940687844450063  1.0000
  C   C21       1.0  0.36450834472295884  0.9809215305516654  0.6294161758062709  1.0000
  C   C22       1.0  0.6354916554785004  0.48092153067033305  0.8705838236603295  1.0000
  C   C23       1.0  0.6354916552780058  0.019078469210999358  0.3705838235406011  1.0000
  C   C24       1.0  0.36450834451583336  0.5190784690923318  0.12941617639464578  1.0000
  C   C25       1.0  0.33668274138746657  0.9085802748052608  0.6992504470899849  1.0000
  C   C26       1.0  0.6633172588073618  0.4085802741222336  0.8007495530847191  1.0000
  C   C27       1.0  0.6633172586068671  0.09141972575909885  0.30074955296499045  1.0000
  C   C28       1.0  0.336682741186972  0.5914197256404313  0.19925044697025637  1.0000
  C   C29       1.0  0.23136515504930105  0.8240282429648887  0.6992882072105567  1.0000
  C   C30       1.0  0.7686348451455273  0.3240282430835563  0.8007117929641471  1.0000
  C   C31       1.0  0.7686348449450326  0.17597175679777613  0.30071179284441857  1.0000
  C   C32       1.0  0.23136515484880643  0.6759717574808032  0.19928820709082826  1.0000
  C   C33       1.0  0.8814351439135539  0.0345768134391198  0.7703706426497365  1.0000
  C   C34       1.0  0.11856485628127432  0.5345768133204523  0.7296293575249673  1.0000
  C   C35       1.0  0.1185648560807797  0.965423186323545  0.22962935740523877  1.0000
  C   C36       1.0  0.8814351437130594  0.4654231864422126  0.2703706425300081  1.0000
  C   C37       1.0  0.9982404526244898  0.029136866497209993  0.7199272484115761  1.0000
  C   C38       1.0  0.0017595475703384483  0.5291368663785424  0.7800727517631277  1.0000
  C   C39       1.0  0.0017595473698438248  0.9708631340671496  0.28007275164339923  1.0000
  C   C40       1.0  0.9982404524239953  0.47086313338412245  0.21992724829184762  1.0000
  C   C41       1.0  0.9947014075911896  0.05626033117620362  0.6241033321529372  1.0000
  C   C42       1.0  0.005298592603638695  0.556260331057536  0.8758966680217666  1.0000
  C   C43       1.0  0.00529859240314407  0.9437396693881559  0.3758966679020381  1.0000
  C   C44       1.0  0.994701407390695  0.4437396687051288  0.12410333203320881  1.0000
  C   C45       1.0  0.8765978305419001  0.0944870122302043  0.5812583269256476  1.0000
  C   C46       1.0  0.12340216965955925  0.5944870121115368  0.9187416725409528  1.0000
  C   C47       1.0  0.1234021694590646  0.9055129875324606  0.4187416724212244  1.0000
  C   C48       1.0  0.8765978303347745  0.40551298765112814  0.0812583275140225  1.0000
  C   C49       1.0  0.2990510352950597  0.21526676583705828  0.5641337493855807  1.0000
  C   C50       1.0  0.7009489648997687  0.7152667657183908  0.9358662507891231  1.0000
  C   C51       1.0  0.700948964699274  0.7847332339256066  0.43586625066939466  1.0000
  C   C52       1.0  0.29905103509456515  0.28473323404427414  0.0641337492658522  1.0000
  C   C53       1.0  0.20591550791972274  0.19794524190958326  0.4780677609976096  1.0000
  C   C54       1.0  0.7940844918741163  0.6979452417909158  0.0219322389376372  1.0000
  C   C55       1.0  0.7940844920746111  0.8020547578530816  0.5219322390573656  1.0000
  C   C56       1.0  0.20591550812021733  0.30205475797174913  0.9780677611173381  1.0000
  C   C57       1.0  0.39019973673166897  0.2513726484424055  0.37745823491773844  1.0000
  C   C58       1.0  0.6098002630621702  0.7513726491254327  0.12254176501750842  1.0000
  C   C59       1.0  0.6098002632626647  0.7486273513202594  0.6225417651372369  1.0000
  C   C60       1.0  0.3901997369387945  0.24862735143892695  0.8774582343293635  1.0000
  C   C61       1.0  0.47872177579704506  0.26872215712808556  0.465881462836511  1.0000
  C   C62       1.0  0.5212782239967941  0.7687221570094179  0.0341185370987359  1.0000
  C   C63       1.0  0.5212782241972886  0.7312778426345792  0.5341185372184644  1.0000
  C   C64       1.0  0.4787217759975396  0.23127784275324687  0.9658814629562393  1.0000
  C   C65       1.0  0.16091159447127218  0.24321008844961725  0.3117883191498416  1.0000
  C   C66       1.0  0.8390884053159361  0.7432100883309496  0.18821168149350861  1.0000
  C   C67       1.0  0.8390884055230615  0.7567899121147423  0.6882116809051336  1.0000
  C   C68       1.0  0.16091159467839763  0.2567899122334099  0.8117883185614666  1.0000
  C   C69       1.0  0.21222088039452064  0.521008460184965  0.4773541965774722  1.0000
  C   C70       1.0  0.7877791193993186  0.021008460303632598  0.02264580335777462  1.0000
  C   C71       1.0  0.7877791195998131  0.4789915395776998  0.522645803477503  1.0000
  C   C72       1.0  0.21222088059501526  0.9789915394590322  0.9773541966972007  1.0000
  C   C73       1.0  0.153116855499801  0.6325796273579596  0.47742065898859937  1.0000
  C   C74       1.0  0.846883144294038  0.13257962747662716  0.022579340946647507  1.0000
  C   C75       1.0  0.8468831444945327  0.3674203724047052  0.522579341066376  1.0000
  C   C76       1.0  0.15311685570029562  0.8674203722860377  0.9774206591083278  1.0000
  N   N1        1.0  0.652830420236313  0.1586051391447011  0.5857070454853089  1.0000
  N   N2        1.0  0.3471695799651463  0.6586051390260335  0.9142929539812914  1.0000
  N   N3        1.0  0.3471695797646516  0.8413948606179638  0.41429295386156295  1.0000
  N   N4        1.0  0.6528304200291875  0.3413948607366313  0.08570704607368393  1.0000
  N   N5        1.0  0.6457649737788488  0.07423835490734412  0.7819578479665297  1.0000
  N   N6        1.0  0.3542350254189594  0.5742383547886765  0.7180421521774248  1.0000
  N   N7        1.0  0.3542350262154851  0.9257616448553208  0.2180421520884456  1.0000
  N   N8        1.0  0.6457649745753744  0.4257616449739883  0.2819578478775504  1.0000
  N   N9        1.0  0.4363692626280926  0.19579203655455216  0.539636887040965  1.0000
  N   N10       1.0  0.5636307375667357  0.6957920364358846  0.9603631131337388  1.0000
  N   N11       1.0  0.563630737366241  0.8042079632081127  0.46036311301401034  1.0000
  N   N12       1.0  0.43636926242759805  0.30420796332678024  0.03963688692123651  1.0000
  N   N13       1.0  0.24627497081998037  0.265645528508203  0.3972143937983386  1.0000
  N   N14       1.0  0.753725029970879  0.7656455283895354  0.10278560616765738  1.0000
  N   N15       1.0  0.7537250291743534  0.7343544720561566  0.6027856062566367  1.0000
  N   N16       1.0  0.2462749700234547  0.23435447137312942  0.8972143938873179  1.0000
  O   O1        1.0  0.1660703243078171  0.4562019484636992  0.4132902143988978  1.0000
  O   O2        1.0  0.833929675486022  0.9562019491467264  0.08670978553634903  1.0000
  O   O3        1.0  0.8339296756865165  0.5437980512989655  0.5867097856560775  1.0000
  O   O4        1.0  0.16607032450831172  0.043798051417633155  0.9132902145186262  1.0000
  O   O5        1.0  0.3024552143927964  0.49613361456019683  0.5381994289987141  1.0000
  O   O6        1.0  0.697544785802032  0.9961336152432239  0.9618005711759896  1.0000
  O   O7        1.0  0.6975447856015373  0.5038663852024681  0.4618005710562612  1.0000
  O   O8        1.0  0.30245521419230176  0.0038663853211356133  0.03819942887898563  1.0000
  S   S1        1.0  0.4478988551117818  0.9235147823142653  0.7957236734384973  1.0000
  S   S2        1.0  0.5521011450896774  0.42351478243293295  0.7042763260281031  1.0000
  S   S3        1.0  0.5521011448825519  0.07648521744839948  0.2042763266164781  1.0000
  S   S4        1.0  0.44789885490465636  0.5764852173297319  0.2957236740268721  1.0000
