data_image0
_chemical_formula_structural       H84C78N2O10P2S2
_chemical_formula_sum              "H84 C78 N2 O10 P2 S2"
_cell_length_a       10.581650604707631
_cell_length_b       17.41287889608376
_cell_length_c       9.067690482834893
_cell_angle_alpha    93.53872928063699
_cell_angle_beta     95.74606270418452
_cell_angle_gamma    82.99297451451477

_space_group_name_H-M_alt    "P 1"
_space_group_IT_number       1

loop_
  _space_group_symop_operation_xyz
  'x, y, z'

loop_
  _atom_site_type_symbol
  _atom_site_label
  _atom_site_symmetry_multiplicity
  _atom_site_fract_x
  _atom_site_fract_y
  _atom_site_fract_z
  _atom_site_occupancy
  H   H1        1.0  0.048685196430048726  0.30563657946671746  0.6371601100852489  1.0000
  H   H2        1.0  0.9513148032877484  0.6943634205565203  0.36283988939433287  1.0000
  H   H3        1.0  0.12394353153576426  0.3495148257063093  0.03342479522853546  1.0000
  H   H4        1.0  0.8760564682740911  0.6504851743482686  0.966575205360813  1.0000
  H   H5        1.0  0.02478154089841881  0.28754070325906145  0.22605685605912018  1.0000
  H   H6        1.0  0.9752184597657219  0.7124592967555629  0.773943143416843  1.0000
  H   H7        1.0  0.8901680615652383  0.18103889944595414  0.154027123498961  1.0000
  H   H8        1.0  0.10983193919096029  0.8189611006000103  0.8459728770867687  1.0000
  H   H9        1.0  0.8482859593921904  0.14162870671497635  0.8851354673666432  1.0000
  H   H10       1.0  0.1517140404176649  0.8583712933396016  0.1148645332227051  1.0000
  H   H11       1.0  0.05780329424383892  0.4748110299381575  0.6129087132767626  1.0000
  H   H12       1.0  0.9421967065228989  0.5251889694980416  0.3870912862036579  1.0000
  H   H13       1.0  0.18344807564754242  0.5043911956931405  0.5216117856629343  1.0000
  H   H14       1.0  0.8165519250165982  0.49560880432148363  0.47838821381302893  1.0000
  H   H15       1.0  0.195071141006581  0.5043219212321206  0.7192383750878573  1.0000
  H   H16       1.0  0.8049288587112164  0.49567807879111725  0.2807616243917246  1.0000
  H   H17       1.0  0.41377998605658506  0.4134209638290239  0.7130771439004896  1.0000
  H   H18       1.0  0.5862200137532703  0.5865790362255541  0.2869228566888587  1.0000
  H   H19       1.0  0.39211495338626134  0.42482595932048295  0.5166076444214142  1.0000
  H   H20       1.0  0.6078850472778793  0.5751740406941415  0.483392355054549  1.0000
  H   H21       1.0  0.4211312812851799  0.33118759606476456  0.5882493987294432  1.0000
  H   H22       1.0  0.5788687185246755  0.6688124039898133  0.411750601859905  1.0000
  H   H23       1.0  0.20524423235000017  0.37328638970456696  0.36861850998490087  1.0000
  H   H24       1.0  0.7947557674598552  0.626713610350011  0.6313814906044474  1.0000
  H   H25       1.0  0.21209850493790341  0.2855687161246594  0.46066772315040294  1.0000
  H   H26       1.0  0.7879014947798938  0.7144312838985786  0.5393322763291788  1.0000
  H   H27       1.0  0.07027624362340595  0.3522983882582647  0.452321975348145  1.0000
  H   H28       1.0  0.9297237570407346  0.6477016117563597  0.5476780241278182  1.0000
  H   H29       1.0  0.2747587112782595  0.21153618732294513  0.19134253715796823  1.0000
  H   H30       1.0  0.725241288531596  0.7884638127316328  0.80865746343138  1.0000
  H   H31       1.0  0.1117423707715442  0.15616561035229143  0.3187231155590211  1.0000
  H   H32       1.0  0.8882576290383112  0.8438343897022865  0.6812768850303271  1.0000
  H   H33       1.0  0.1608282776423686  0.027494683630025392  0.423084872358817  1.0000
  H   H34       1.0  0.8391717221674866  0.9725053164245526  0.5769151282305314  1.0000
  H   H35       1.0  0.3744264590327199  0.9519491286432691  0.40493104076789443  1.0000
  H   H36       1.0  0.6255735407771355  0.04805087141130879  0.5950689598214538  1.0000
  H   H37       1.0  0.540179888658812  0.006210387771706813  0.2821486405141929  1.0000
  H   H38       1.0  0.4598201110589854  0.9937896122515311  0.7178513589653889  1.0000
  H   H39       1.0  0.3847360890121613  0.2943250417498948  0.052921376995317036  1.0000
  H   H40       1.0  0.6152639108082332  0.705674957694918  0.947078622488722  1.0000
  H   H41       1.0  0.39683203558099633  0.42900833611131667  0.1365896019424784  1.0000
  H   H42       1.0  0.6031679641368008  0.5709916639119212  0.8634103975371034  1.0000
  H   H43       1.0  0.5739715456924063  0.46476337114802513  0.3222384996057981  1.0000
  H   H44       1.0  0.4260284540253911  0.5352366288752128  0.6777614998737836  1.0000
  H   H45       1.0  0.740118198051224  0.36094172729304647  0.4208284124071537  1.0000
  H   H46       1.0  0.2598818016665731  0.6390582727301914  0.579171587072428  1.0000
  H   H47       1.0  0.727974613677871  0.22634725783189336  0.3440415959395786  1.0000
  H   H48       1.0  0.2720253861319843  0.7736527422226847  0.6559584046497696  1.0000
  H   H49       1.0  0.2968096893889967  0.11479741958745271  0.953012010681358  1.0000
  H   H50       1.0  0.7031903104208587  0.8852025804671252  0.04698798990799018  1.0000
  H   H51       1.0  0.22461787256867946  0.13038988906576326  0.6861647061699047  1.0000
  H   H52       1.0  0.7753821280954613  0.8696101109488609  0.3138352933060586  1.0000
  H   H53       1.0  0.3685242329218853  0.17733203944423295  0.5208810065318101  1.0000
  H   H54       1.0  0.6314757677422553  0.8226679605703913  0.47911899294415294  1.0000
  H   H55       1.0  0.58342356191776  0.21315202782413412  0.6233700029614526  1.0000
  H   H56       1.0  0.41657643789209536  0.7868479722304438  0.3766299976278957  1.0000
  H   H57       1.0  0.6517314844512352  0.20240615583641447  0.8887349777827489  1.0000
  H   H58       1.0  0.34826851535862013  0.7975938442181635  0.11126502280659928  1.0000
  H   H59       1.0  0.6795858270732419  0.049140814134069594  0.9225650152950485  1.0000
  H   H60       1.0  0.32041417264455535  0.9508591858891684  0.07743498418453311  1.0000
  H   H61       1.0  0.8840191335702997  0.963890280994009  0.958062630979835  1.0000
  H   H62       1.0  0.11598086709384091  0.0361097190206151  0.04193736849612818  1.0000
  H   H63       1.0  0.00565979818199025  0.957756586823052  0.20777909232845618  1.0000
  H   H64       1.0  0.9943402024821505  0.04224341319157227  0.792220907147507  1.0000
  H   H65       1.0  0.9197845464566495  0.03619699552537746  0.42203078101190467  1.0000
  H   H66       1.0  0.08021545335320586  0.9638030045292004  0.5779692195774436  1.0000
  H   H67       1.0  0.7132877502767642  0.11472504786029906  0.3935039206466795  1.0000
  H   H68       1.0  0.28671225047943455  0.8852749521856652  0.6064960799390502  1.0000
  H   H69       1.0  0.9179215493511782  0.4399973359762566  0.7463477593334693  1.0000
  H   H70       1.0  0.08207845131296243  0.5600026640383677  0.25365224014249393  1.0000
  H   H71       1.0  0.8048631134815689  0.5224067081157394  0.7784887347695572  1.0000
  H   H72       1.0  0.1951368862362283  0.4775932919074985  0.2215112647100246  1.0000
  H   H73       1.0  0.7437876318791221  0.3690477343756548  0.6599283748434283  1.0000
  H   H74       1.0  0.2562123687850185  0.6309522656389696  0.34007162463253493  1.0000
  H   H75       1.0  0.6341247616652634  0.4504336051873558  0.7040412687859033  1.0000
  H   H76       1.0  0.36587523814459194  0.5495663948672221  0.295958731803445  1.0000
  H   H77       1.0  0.744408446949785  0.31592769647422025  0.8929194205290035  1.0000
  H   H78       1.0  0.25559155380641374  0.6840723035717442  0.10708058005672633  1.0000
  H   H79       1.0  0.5914545994940981  0.3704891426058137  0.896738072374755  1.0000
  H   H80       1.0  0.40854540117004245  0.6295108574088107  0.10326192710120811  1.0000
  H   H81       1.0  0.6829579007061174  0.4767419472408646  0.04346309110615309  1.0000
  H   H82       1.0  0.31704209901167996  0.5232580527823733  0.9565369083734286  1.0000
  H   H83       1.0  0.7863568285100561  0.395561153824437  0.11385476028249579  1.0000
  H   H84       1.0  0.2136431714023963  0.6044388456517157  0.8861452403113099  1.0000
  C   C1        1.0  0.8304289667394373  0.46037334709725203  0.7997941130441616  1.0000
  C   C2        1.0  0.1695710329783599  0.5396266529259859  0.20020588643542025  1.0000
  C   C3        1.0  0.7187642208246934  0.4126969648252594  0.7476837345293832  1.0000
  C   C4        1.0  0.28123577889310386  0.5873030351979784  0.25231626495019854  1.0000
  C   C5        1.0  0.6932237466054146  0.3745691859267423  0.8889451747671958  1.0000
  C   C6        1.0  0.3067762531123826  0.6254308140964955  0.11105482471238584  1.0000
  C   C7        1.0  0.7515757642635285  0.42628439896141657  0.012973921208043906  1.0000
  C   C8        1.0  0.24842423640061206  0.5737156010532077  0.9870260782679192  1.0000
  C   C9        1.0  0.9641625344788329  0.22105229063156295  0.8113391842009198  1.0000
  C   C10       1.0  0.03583746627736576  0.7789477094144014  0.18866081638480997  1.0000
  C   C11       1.0  0.04571832950334839  0.27895337766034467  0.8520798041977399  1.0000
  C   C12       1.0  0.9542816703170459  0.7210466217844682  0.1479201952862992  1.0000
  C   C13       1.0  0.06663101417727148  0.30228999536243745  0.0030122669789302272  1.0000
  C   C14       1.0  0.9333689856325839  0.6977100046921404  0.996987733610418  1.0000
  C   C15       1.0  0.010154964784628366  0.2675407759205636  0.1099605363160725  1.0000
  C   C16       1.0  0.9898450350252271  0.7324592241340144  0.8900394642732758  1.0000
  C   C17       1.0  0.933340203249186  0.20842683776345966  0.06996422447711782  1.0000
  C   C18       1.0  0.06665979646861149  0.7915731622597783  0.9300357750024639  1.0000
  C   C19       1.0  0.910302891393443  0.1860586060263108  0.9205504301780227  1.0000
  C   C20       1.0  0.08969710841641225  0.8139413940282672  0.07944957041132554  1.0000
  C   C21       1.0  0.20255267425316462  0.35275480783029683  0.7514405734662948  1.0000
  C   C22       1.0  0.797447326410976  0.6472451921843275  0.24855942600966838  1.0000
  C   C23       1.0  0.22789949571632248  0.3893785454508775  0.6078015501156895  1.0000
  C   C24       1.0  0.7721005040014748  0.6106214545723604  0.39219844936389225  1.0000
  C   C25       1.0  0.16205174722031152  0.47334552286129933  0.6164156650627576  1.0000
  C   C26       1.0  0.8379482524974857  0.5266544771619385  0.3835843344168242  1.0000
  C   C27       1.0  0.17536315001920552  0.34736988378804795  0.4651706827369445  1.0000
  C   C28       1.0  0.8246368497906499  0.65263011626653  0.5348293178524037  1.0000
  C   C29       1.0  0.3725236488459692  0.38983895002317426  0.6065805044035156  1.0000
  C   C30       1.0  0.627476350871828  0.6101610500000636  0.39341949507606605  1.0000
  C   C31       1.0  0.4182777921841158  0.11229222847321514  0.22828465075567372  1.0000
  C   C32       1.0  0.5817222075336815  0.8877077715500227  0.771715348723908  1.0000
  C   C33       1.0  0.2971582795566332  0.15470313130464336  0.23795467789245248  1.0000
  C   C34       1.0  0.7028417211995657  0.8452968687413209  0.7620453226932772  1.0000
  C   C35       1.0  0.20507777706439104  0.12360389887989798  0.30780079661878623  1.0000
  C   C36       1.0  0.7949222227454642  0.87639610117468  0.692199203970562  1.0000
  C   C37       1.0  0.233151095632367  0.05074136065334349  0.3675650496729791  1.0000
  C   C38       1.0  0.7668489050317736  0.9492586393612807  0.6324349498029841  1.0000
  C   C39       1.0  0.35342136198515045  0.008867882216317654  0.35900874626581675  1.0000
  C   C40       1.0  0.6465786377326468  0.9911321178069201  0.6409912532137649  1.0000
  C   C41       1.0  0.44665345187977396  0.03936527232890877  0.28939520270372737  1.0000
  C   C42       1.0  0.5533465488764249  0.9606347277170555  0.7106047978820024  1.0000
  C   C43       1.0  0.5524118553565394  0.24943166595942537  0.1967320865186527  1.0000
  C   C44       1.0  0.44758814530760127  0.7505683340551988  0.8032679129573105  1.0000
  C   C45       1.0  0.4600257146400307  0.30750542090992616  0.13845887997955456  1.0000
  C   C46       1.0  0.5399742850777665  0.6924945791133117  0.8615411195000272  1.0000
  C   C47       1.0  0.4676079899422693  0.3846461822665355  0.18502437364567023  1.0000
  C   C48       1.0  0.5323920107218714  0.6153538177480886  0.8149756258302929  1.0000
  C   C49       1.0  0.567034668358216  0.40431789478993413  0.2878790417077172  1.0000
  C   C50       1.0  0.43296533230592454  0.5956821052246901  0.712120957768246  1.0000
  C   C51       1.0  0.6598580425259646  0.3467914558751691  0.34356067517089983  1.0000
  C   C52       1.0  0.34014195719183277  0.6532085441480687  0.6564393243086819  1.0000
  C   C53       1.0  0.6530372993184419  0.26927337979996757  0.29909468878987716  1.0000
  C   C54       1.0  0.3469627014377568  0.7307266202459968  0.7009053117958526  1.0000
  C   C55       1.0  0.47948171585779104  0.15635281955649738  0.9375222837045121  1.0000
  C   C56       1.0  0.5205182848984077  0.843647180489467  0.06247771688121748  1.0000
  C   C57       1.0  0.5592308486876111  0.18526221437845905  0.8445792411960369  1.0000
  C   C58       1.0  0.44076915103018616  0.8147377856447788  0.15542075828354487  1.0000
  C   C59       1.0  0.5194060388722915  0.1922922273741246  0.6946868939498915  1.0000
  C   C60       1.0  0.48059396084550576  0.8077077726491133  0.3053131055296903  1.0000
  C   C61       1.0  0.39982449807295534  0.17161832783384737  0.6382015570446519  1.0000
  C   C62       1.0  0.6001755025911854  0.828381672180777  0.36179844243131143  1.0000
  C   C63       1.0  0.31920074180671293  0.14424336753435252  0.7306565206429482  1.0000
  C   C64       1.0  0.6807992579110844  0.8557566324888853  0.2693434788366335  1.0000
  C   C65       1.0  0.3593163985414767  0.13616193995294246  0.880768983815872  1.0000
  C   C66       1.0  0.6406836011763206  0.8638380600702954  0.11923101566370978  1.0000
  C   C67       1.0  0.6825948627142243  0.08894602093149243  0.15411358532704744  1.0000
  C   C68       1.0  0.3174051379499162  0.9110539790831319  0.8458864141489157  1.0000
  C   C69       1.0  0.7313527902646253  0.04581062264137563  0.03230387994454681  1.0000
  C   C70       1.0  0.2686472095452301  0.9541893774132022  0.9676961206448015  1.0000
  C   C71       1.0  0.8470494671937567  0.9981274291309783  0.05230988518751383  1.0000
  C   C72       1.0  0.15295053261609867  0.001872570923599587  0.9476901154018345  1.0000
  C   C73       1.0  0.915160182267824  0.9945423703183435  0.19195169449403984  1.0000
  C   C74       1.0  0.08483981839631663  0.005457629696280749  0.8080483049819234  1.0000
  C   C75       1.0  0.8663926259111374  0.03720809672575865  0.313174969754629  1.0000
  C   C76       1.0  0.13360737389871796  0.9627919033288191  0.6868250308347194  1.0000
  C   C77       1.0  0.749421684272715  0.08329504999209705  0.2958468396173844  1.0000
  C   C78       1.0  0.2505783164834838  0.9167049500538672  0.7041531609683453  1.0000
  N   N1        1.0  0.09684786392406772  0.31383866458498333  0.7398829106510308  1.0000
  N   N2        1.0  0.9031521358857876  0.6861613354695945  0.26011708993831745  1.0000
  O   O1        1.0  0.9048592677406149  0.26353889186258317  0.5394669439902594  1.0000
  O   O2        1.0  0.09514073206924062  0.7364611081919948  0.4605330565990889  1.0000
  O   O3        1.0  0.805473264741752  0.15467021239926973  0.620726164991904  1.0000
  O   O4        1.0  0.19452673592238856  0.8453297876153545  0.37927383448405916  1.0000
  O   O5        1.0  0.032175863532328604  0.13787827529968663  0.5750044141531581  1.0000
  O   O6        1.0  0.9678241361854688  0.8621217247235512  0.42499558532642373  1.0000
  O   O7        1.0  0.2712436168000868  0.3613974731682835  0.8687107455425647  1.0000
  O   O8        1.0  0.7287563829177106  0.6386025268549543  0.13128925393701704  1.0000
  O   O9        1.0  0.8600695975633408  0.4513070735799249  0.9562521185325579  1.0000
  O   O10       1.0  0.1399304021544565  0.548692926443313  0.04374788094702378  1.0000
  P   P1        1.0  0.5345560449696628  0.15114010844996006  0.13091051676015458  1.0000
  P   P2        1.0  0.4654439548401926  0.8488598916046178  0.8690894838291937  1.0000
  S   S1        1.0  0.9232092375214517  0.19134294556591244  0.6207759907062915  1.0000
  S   S2        1.0  0.07679076228840374  0.8086570544886654  0.37922400988305677  1.0000
