data_image0
_chemical_formula_structural       B80C88P8Br8
_chemical_formula_sum              "B80 C88 P8 Br8"
_cell_length_a       10.587802148112692
_cell_length_b       15.072577040756357
_cell_length_c       12.744244085417701
_cell_angle_alpha    90.0
_cell_angle_beta     115.36473695475844
_cell_angle_gamma    90.0

_space_group_name_H-M_alt    "P 1"
_space_group_IT_number       1

loop_
  _space_group_symop_operation_xyz
  'x, y, z'

loop_
  _atom_site_type_symbol
  _atom_site_label
  _atom_site_symmetry_multiplicity
  _atom_site_fract_x
  _atom_site_fract_y
  _atom_site_fract_z
  _atom_site_occupancy
  B   B1        1.0  0.30981088232862886  0.9535968223041666  0.9133887744249541  1.0000
  B   B2        1.0  0.30981088182741945  0.04640317764565247  0.41338877378045136  1.0000
  B   B3        1.0  0.8098108816002704  0.4535968223292571  0.913388773885916  1.0000
  B   B4        1.0  0.8098108815417397  0.5464031776205619  0.4133887741097815  1.0000
  B   B5        1.0  0.2777833248918181  0.9383246635102482  0.7528878942720176  1.0000
  B   B6        1.0  0.27778332483328755  0.061675336439570884  0.252887894495883  1.0000
  B   B7        1.0  0.7777833255530143  0.43832466353533867  0.7528878946060149  1.0000
  B   B8        1.0  0.777783325051805  0.5616753364144803  0.2528878939615121  1.0000
  B   B9        1.0  0.12024975248381065  0.9856365988264013  0.6117934297386796  1.0000
  B   B10       1.0  0.12024975242528008  0.01436340112341772  0.11179342996254493  1.0000
  B   B11       1.0  0.620249753145007  0.4856365988514918  0.6117934300726768  1.0000
  B   B12       1.0  0.6202497530864762  0.5143634010983272  0.1117934302965421  1.0000
  B   B13       1.0  0.16263384329938047  0.08204480936844127  0.7304361585540888  1.0000
  B   B14       1.0  0.1626338432408499  0.9179551905813778  0.23043615877795418  1.0000
  B   B15       1.0  0.6626338430137007  0.5820448093433508  0.7304361588834188  1.0000
  B   B16       1.0  0.66263384295517  0.41795519060646824  0.2304361591072842  1.0000
  B   B17       1.0  0.4483270213853461  0.03534256143190152  0.8355761703828857  1.0000
  B   B18       1.0  0.44832702132681546  0.964657439181374  0.33557617060675105  1.0000
  B   B19       1.0  0.9483270220465423  0.535342561406811  0.835576170716883  1.0000
  B   B20       1.0  0.948327021545333  0.464657438543008  0.3355761700723801  1.0000
  B   B21       1.0  0.43373622484547797  0.9543541771990284  0.7347409205315412  1.0000
  B   B22       1.0  0.4337362257338233  0.045645822750790564  0.23474092076007363  1.0000
  B   B23       1.0  0.9337362250639953  0.45435417722411897  0.7347409199971703  1.0000
  B   B24       1.0  0.9337362250054647  0.5456458227257002  0.2347409202210356  1.0000
  B   B25       1.0  0.28094495913612  0.9722036696429894  0.6162198725455889  1.0000
  B   B26       1.0  0.2809449590775895  0.027796330970286158  0.11621987276945428  1.0000
  B   B27       1.0  0.7809449588504402  0.47220366900462335  0.6162198728749189  1.0000
  B   B28       1.0  0.7809449583492309  0.5277963309451956  0.11621987223041622  1.0000
  B   B29       1.0  0.2058419976242055  0.08958008350854949  0.61121724802616  1.0000
  B   B30       1.0  0.20584199756567495  0.9104199164412695  0.1112172482500254  1.0000
  B   B31       1.0  0.7058419982854018  0.589580083483459  0.6112172483601572  1.0000
  B   B32       1.0  0.7058419982268711  0.41041991646636  0.11121724858402257  1.0000
  B   B33       1.0  0.3245355330772321  0.12357160059382491  0.7671630356437485  1.0000
  B   B34       1.0  0.32453553301870147  0.876428399355994  0.2671630358676139  1.0000
  B   B35       1.0  0.8245355327915522  0.6235716005687345  0.7671630359730786  1.0000
  B   B36       1.0  0.8245355327330217  0.37642839938108463  0.2671630361969439  1.0000
  B   B37       1.0  0.4081477626440752  0.06794367195675056  0.6881849004128011  1.0000
  B   B38       1.0  0.4081477635324206  0.9320563279930685  0.18818490064133367  1.0000
  B   B39       1.0  0.9081477633052715  0.5679436719316601  0.6881849007467984  1.0000
  B   B40       1.0  0.9081477632467408  0.43205632801815896  0.1881849009706637  1.0000
  B   B41       1.0  0.4184919924849926  0.2982093571554535  0.1025802253238408  1.0000
  B   B42       1.0  0.4184919925435232  0.7017906434578222  0.6025802250999754  1.0000
  B   B43       1.0  0.9184919931461889  0.798209357130363  0.10258022565783799  1.0000
  B   B44       1.0  0.9184919922578435  0.2017906434829126  0.6025802254293054  1.0000
  B   B45       1.0  0.5565356563509756  0.35021807324164855  0.2653640516152511  1.0000
  B   B46       1.0  0.5565356564095062  0.6497819267081706  0.7653640513913857  1.0000
  B   B47       1.0  0.05653565663665538  0.8502180732165581  0.26536405128592105  1.0000
  B   B48       1.0  0.05653565669518596  0.14978192673326096  0.7653640510620557  1.0000
  B   B49       1.0  0.5205651926956679  0.26544338099460335  0.4186574792274054  1.0000
  B   B50       1.0  0.5205651931968772  0.7345566189552157  0.9186574798719079  1.0000
  B   B51       1.0  0.020565192477150475  0.7654433809695128  0.4186574797617763  1.0000
  B   B52       1.0  0.02056519253568113  0.2345566189803062  0.918657479537911  1.0000
  B   B53       1.0  0.3717912658169937  0.1115176034897648  0.10392863025445892  1.0000
  B   B54       1.0  0.37179126537132706  0.8884823964600542  0.6039286308942945  1.0000
  B   B55       1.0  0.8717912655313138  0.6115176034646743  0.10392863058378893  1.0000
  B   B56       1.0  0.8717912655898444  0.3884823964851447  0.6039286303599236  1.0000
  B   B57       1.0  0.6108206585738629  0.21610389392553064  0.1656146302235462  1.0000
  B   B58       1.0  0.6108206586323934  0.7838961060242884  0.6656146299996808  1.0000
  B   B59       1.0  0.11082065791266665  0.7161038939004402  0.165614629889549  1.0000
  B   B60       1.0  0.11082065797119722  0.28389610604937887  0.6656146296656836  1.0000
  B   B61       1.0  0.7055065330282929  0.2957949903287589  0.27337744852702817  1.0000
  B   B62       1.0  0.7055065321399475  0.7042050096210601  0.7733774482984958  1.0000
  B   B63       1.0  0.20550653236709665  0.7957949903036684  0.273377448193031  1.0000
  B   B64       1.0  0.20550653242562722  0.20420500964615063  0.7733774479691656  1.0000
  B   B65       1.0  0.6413942157821639  0.26670385356997167  0.3697569764358881  1.0000
  B   B66       1.0  0.6413942158406944  0.7332961463798473  0.8697569762120226  1.0000
  B   B67       1.0  0.1413942160678437  0.7667038535448812  0.36975697610655806  1.0000
  B   B68       1.0  0.1413942161263742  0.23329614640493787  0.8697569758826926  1.0000
  B   B69       1.0  0.5937016153109539  0.16317167551041317  0.39902954310962274  1.0000
  B   B70       1.0  0.5937016158121632  0.8368283244394058  0.8990295437541255  1.0000
  B   B71       1.0  0.09370161603931242  0.6631716754853227  0.39902954364866083  1.0000
  B   B72       1.0  0.09370161515096702  0.3368283244644963  0.8990295434201283  1.0000
  B   B73       1.0  0.5283903285600601  0.14178014709903672  0.24227145553958998  1.0000
  B   B74       1.0  0.5283903286185907  0.8582198528507823  0.7422714553157245  1.0000
  B   B75       1.0  0.02839032884573992  0.6417801470739463  0.24227145521025995  1.0000
  B   B76       1.0  0.028390328904270512  0.3582198528758728  0.7422714549863947  1.0000
  B   B77       1.0  0.7168502688301795  0.18073653248769853  0.32117456190039884  1.0000
  B   B78       1.0  0.7168502693313888  0.8192634674621205  0.8211745625449015  1.0000
  B   B79       1.0  0.21685026955853806  0.680736532462608  0.3211745624394369  1.0000
  B   B80       1.0  0.2168502696170686  0.319263467487211  0.8211745622155715  1.0000
  C   C1        1.0  0.21696233318695676  0.8767838448770562  0.8302475887331708  1.0000
  C   C2        1.0  0.21696233312842617  0.12321615507276283  0.33024758895703615  1.0000
  C   C3        1.0  0.7169623329012769  0.37678384490214667  0.8302475890625007  1.0000
  C   C4        1.0  0.7169623333469436  0.6232161550476724  0.3302475884226653  1.0000
  C   C5        1.0  0.2832682089773387  0.030670574033224655  0.8279470122995536  1.0000
  C   C6        1.0  0.28326820891880805  0.9693294259165943  0.3279470125234189  1.0000
  C   C7        1.0  0.78326820824898  0.5306705740081341  0.8279470117605154  1.0000
  C   C8        1.0  0.7832682081904495  0.46932942594168486  0.3279470119843808  1.0000
  C   C9        1.0  0.06597330367480078  0.8880643757073348  0.8038337504828085  1.0000
  C   C10       1.0  0.06597330412046735  0.11193562424248434  0.30383374984297284  1.0000
  C   C11       1.0  0.5659733038933182  0.3880643757324252  0.8038337499484376  1.0000
  C   C12       1.0  0.5659733038347876  0.6119356242173938  0.3038337501723029  1.0000
  C   C13       1.0  0.8799801957302306  0.8429224966404584  0.8857763703209859  1.0000
  C   C14       1.0  0.8799801966185762  0.15707750330936066  0.38577637054951847  1.0000
  C   C15       1.0  0.37998019601591054  0.34292249666554886  0.885776369991656  1.0000
  C   C16       1.0  0.37998019595737986  0.6570775032842702  0.38577637021552125  1.0000
  C   C17       1.0  0.810996580518937  0.9594791355781515  0.5946822053104672  1.0000
  C   C18       1.0  0.8109965804604066  0.04052086437166765  0.09468220553433264  1.0000
  C   C19       1.0  0.3109965798577409  0.4594791356032419  0.5946822049764701  1.0000
  C   C20       1.0  0.3109965797992103  0.5405208643465771  0.09468220520033546  1.0000
  C   C21       1.0  0.10162048633939379  0.8329909846239513  0.013794017437529607  1.0000
  C   C22       1.0  0.10162048639792438  0.1670090153258677  0.5137940172136642  1.0000
  C   C23       1.0  0.6016204865579112  0.3329909846490418  0.013794016903158698  1.0000
  C   C24       1.0  0.6016204856695658  0.6670090153007773  0.5137940166746262  1.0000
  C   C25       1.0  0.9488956185942344  0.831047540585099  0.003128195669417158  1.0000
  C   C26       1.0  0.9488956186527648  0.16895245936472  0.5031281954455518  1.0000
  C   C27       1.0  0.44889561793303817  0.33104754061018954  0.003128195335419989  1.0000
  C   C28       1.0  0.4488956184342475  0.6689524593396295  0.5031281959799226  1.0000
  C   C29       1.0  0.01556623361858487  0.8545279400577988  0.8776326342342409  1.0000
  C   C30       1.0  0.015566233117375572  0.14547206055547693  0.3776326335897382  1.0000
  C   C31       1.0  0.5155662338371023  0.3545279400828892  0.87763263369987  1.0000
  C   C32       1.0  0.5155662337785717  0.6454720605303864  0.3776326339237354  1.0000
  C   C33       1.0  0.8841320836920342  0.03239102966134189  0.6457867401813913  1.0000
  C   C34       1.0  0.8841320831908247  0.9676089702884771  0.14578673953688848  1.0000
  C   C35       1.0  0.3841320839777139  0.5323910296362514  0.6457867398520613  1.0000
  C   C36       1.0  0.3841320839191833  0.46760897031356763  0.14578674007592654  1.0000
  C   C37       1.0  0.5834975266073041  0.9842675117788313  0.450864673483473  1.0000
  C   C38       1.0  0.5834975266658347  0.01573248817098769  0.9508646732596076  1.0000
  C   C39       1.0  0.08349752594610801  0.4842675118039218  0.4508646731494758  1.0000
  C   C40       1.0  0.08349752644731731  0.5157324881458972  0.9508646737939784  1.0000
  C   C41       1.0  0.6832751578474475  0.9231447961669714  0.5106831278949936  1.0000
  C   C42       1.0  0.6832751587357928  0.0768552037828476  0.010683128123526078  1.0000
  C   C43       1.0  0.18327515813312723  0.4231447961920619  0.5106831275656636  1.0000
  C   C44       1.0  0.18327515807459663  0.5768552037577572  0.010683127789528908  1.0000
  C   C45       1.0  0.39658002789520047  0.37483928625628626  0.18349388469158523  1.0000
  C   C46       1.0  0.396580027953731  0.6251607136935328  0.6834938844677199  1.0000
  C   C47       1.0  0.8965800271668419  0.8748392862311958  0.1834938841525472  1.0000
  C   C48       1.0  0.8965800276680512  0.12516071371862325  0.6834938847970499  1.0000
  C   C49       1.0  0.439852039876899  0.19892560455272626  0.12979406716801153  1.0000
  C   C50       1.0  0.4398520399354296  0.8010743953970927  0.6297940669441462  1.0000
  C   C51       1.0  0.9398520405380951  0.6989256045276359  0.12979406750200873  1.0000
  C   C52       1.0  0.9398520396497498  0.3010743954221832  0.6297940672734762  1.0000
  C   C53       1.0  0.27280253851844644  0.36285013075146677  0.2081627500724545  1.0000
  C   C54       1.0  0.27280253857697695  0.6371498698618088  0.7081627498485891  1.0000
  C   C55       1.0  0.7728025387369638  0.8628501307263763  0.20816274953808356  1.0000
  C   C56       1.0  0.7728025382912972  0.1371498698868993  0.7081627501779192  1.0000
  C   C57       1.0  0.22106603277597453  0.2884416883884002  0.4081165415242875  1.0000
  C   C58       1.0  0.22106603283450518  0.7115583115614188  0.9081165413004223  1.0000
  C   C59       1.0  0.7210660334371707  0.7884416883633097  0.4081165418582847  1.0000
  C   C60       1.0  0.7210660325488253  0.2115583115865093  0.9081165416297522  1.0000
  C   C61       1.0  0.004146198222876076  0.41020764155203393  0.12374926700186943  1.0000
  C   C62       1.0  0.004146198281406691  0.5897923583977851  0.6237492667780041  1.0000
  C   C63       1.0  0.5041461979371963  0.9102076415269434  0.12374926733119944  1.0000
  C   C64       1.0  0.5041461979957269  0.08979235842287558  0.6237492671073341  1.0000
  C   C65       1.0  0.2454124808883233  0.2158399994375977  0.35802102933974117  1.0000
  C   C66       1.0  0.2454124809468538  0.7841600005122213  0.8580210291158757  1.0000
  C   C67       1.0  0.7454124815495194  0.7158399994125072  0.3580210296737383  1.0000
  C   C68       1.0  0.745412480661174  0.2841600005373118  0.8580210294452059  1.0000
  C   C69       1.0  0.1740508127164522  0.32436285757771555  0.4896974996465963  1.0000
  C   C70       1.0  0.17405081321766158  0.6756371423721035  0.9896975002910992  1.0000
  C   C71       1.0  0.6740508133776484  0.8243628575526252  0.4896974999805935  1.0000
  C   C72       1.0  0.674050813436179  0.17563714239719394  0.9896974997567282  1.0000
  C   C73       1.0  0.1386185219254922  0.2649225676009299  0.553216704934639  1.0000
  C   C74       1.0  0.13861852186696164  0.7350774323488891  0.05321670515850442  1.0000
  C   C75       1.0  0.6386185216398125  0.7649225675758394  0.5532167052639692  1.0000
  C   C76       1.0  0.6386185215812819  0.23507743237397963  0.05321670548783445  1.0000
  C   C77       1.0  0.14631941918245983  0.39633346068471853  0.13148145165346556  1.0000
  C   C78       1.0  0.1463194187367932  0.6036665392651005  0.6314814522933011  1.0000
  C   C79       1.0  0.6463194188967801  0.896333460659628  0.1314814519827956  1.0000
  C   C80       1.0  0.6463194189553106  0.10366653929019103  0.6314814517589301  1.0000
  C   C81       1.0  0.9502287551359322  0.4248560231395346  0.00698197565318792  1.0000
  C   C82       1.0  0.9502287542475869  0.5751439768102845  0.5069819754246554  1.0000
  C   C83       1.0  0.45022875447473615  0.9248560231144441  0.006981975319190751  1.0000
  C   C84       1.0  0.45022875453326666  0.07514397683537495  0.5069819750953254  1.0000
  C   C85       1.0  0.08905947024325556  0.4182174516643691  0.992975625229982  1.0000
  C   C86       1.0  0.08905947018472506  0.5817825482854501  0.49297562545384743  1.0000
  C   C87       1.0  0.589059469957576  0.9182174516392786  0.9929756255593122  1.0000
  C   C88       1.0  0.5890594698990453  0.08178254831054048  0.4929756257831775  1.0000
  P   P1        1.0  0.9907221823526042  0.9410561599151877  0.6686516798435049  1.0000
  P   P2        1.0  0.9907221818513949  0.05894384003463136  0.16865167919900217  1.0000
  P   P3        1.0  0.4907221816914081  0.44105615994027814  0.6686516795095077  1.0000
  P   P4        1.0  0.49072218257975353  0.5589438400095409  0.1686516797380402  1.0000
  P   P5        1.0  0.33349960144897045  0.3082143310621871  0.3425891795742273  1.0000
  P   P6        1.0  0.333499601507501  0.6917856688876319  0.8425891793503619  1.0000
  P   P7        1.0  0.833499600720612  0.8082143310370966  0.34258917903518926  1.0000
  P   P8        1.0  0.8334996007791424  0.19178566891272242  0.8425891788113238  1.0000
  Br  Br1       1.0  0.9808498546906197  0.03320038893461106  0.9361024305807751  1.0000
  Br  Br2       1.0  0.9808498541894103  0.966799611015208  0.4361024299362723  1.0000
  Br  Br3       1.0  0.48084985497629934  0.5332003889095206  0.936102430251445  1.0000
  Br  Br4       1.0  0.4808498549177687  0.46679961104029843  0.43610243047531033  1.0000
  Br  Br5       1.0  0.061065306797689574  0.21703588849832434  0.08372619147258141  1.0000
  Br  Br6       1.0  0.061065306856220164  0.7829641114514947  0.583726191248716  1.0000
  Br  Br7       1.0  0.5610653070162069  0.7170358884732339  0.0837261909382105  1.0000
  Br  Br8       1.0  0.5610653065705404  0.2829641114765852  0.5837261915780462  1.0000
