data_image0
_chemical_formula_structural       H40C88F12I12
_chemical_formula_sum              "H40 C88 F12 I12"
_cell_length_a       5.0329395012358775
_cell_length_b       17.510967592238888
_cell_length_c       22.58600054312906
_cell_angle_alpha    90.0
_cell_angle_beta     90.0
_cell_angle_gamma    90.0

_space_group_name_H-M_alt    "P 1"
_space_group_IT_number       1

loop_
  _space_group_symop_operation_xyz
  'x, y, z'

loop_
  _atom_site_type_symbol
  _atom_site_label
  _atom_site_symmetry_multiplicity
  _atom_site_fract_x
  _atom_site_fract_y
  _atom_site_fract_z
  _atom_site_occupancy
  H   H1        1.0  0.040579108878588586  0.35879276041745584  0.556939829872921  1.0000
  H   H2        1.0  0.45942089099863254  0.14120723980415137  0.056939829942190906  1.0000
  H   H3        1.0  0.9594208908758536  0.35879276041745584  0.9430601699192692  1.0000
  H   H4        1.0  0.5405791087558097  0.14120723980415137  0.4430601699885392  1.0000
  H   H5        1.0  0.9594208908758536  0.6412072394546878  0.4430601699885392  1.0000
  H   H6        1.0  0.5405791087558097  0.858792760639063  0.9430601699192692  1.0000
  H   H7        1.0  0.040579108878588586  0.6412072394546878  0.056939829942190906  1.0000
  H   H8        1.0  0.45942089099863254  0.858792760639063  0.556939829872921  1.0000
  H   H9        1.0  0.9839489842434943  0.48055545906724445  0.6107964437376562  1.0000
  H   H10       1.0  0.5160510173750795  0.019444540583291998  0.11079644380692605  1.0000
  H   H11       1.0  0.016051015510948008  0.48055545906724445  0.8892035564972862  1.0000
  H   H12       1.0  0.4839489843662731  0.019444540583291998  0.3892035561238041  1.0000
  H   H13       1.0  0.016051015510948008  0.5194445408048992  0.3892035561238041  1.0000
  H   H14       1.0  0.4839489843662731  0.9805554592888517  0.8892035564972862  1.0000
  H   H15       1.0  0.9839489842434943  0.5194445408048992  0.11079644380692605  1.0000
  H   H16       1.0  0.5160510173750795  0.9805554592888517  0.6107964437376562  1.0000
  H   H17       1.0  0.1069058231015647  0.6155496972524437  0.6248592243257237  1.0000
  H   H18       1.0  0.3930941767756564  0.8844503028413072  0.12485922439499365  1.0000
  H   H19       1.0  0.8930941766528775  0.6155496972524437  0.8751407759092187  1.0000
  H   H20       1.0  0.6069058229787858  0.8844503028413072  0.37514077553573644  1.0000
  H   H21       1.0  0.8930941766528775  0.3844503026197  0.37514077553573644  1.0000
  H   H22       1.0  0.6069058229787858  0.11554969760190717  0.8751407759092187  1.0000
  H   H23       1.0  0.1069058231015647  0.3844503026197  0.12485922439499365  1.0000
  H   H24       1.0  0.3930941767756564  0.11554969760190717  0.6248592243257237  1.0000
  H   H25       1.0  0.378876203366195  0.7284022166572458  0.598001015018519  1.0000
  H   H26       1.0  0.12112379651102617  0.771597783436505  0.09800101508778894  1.0000
  H   H27       1.0  0.6211237963882472  0.7284022166572458  0.9019989852164234  1.0000
  H   H28       1.0  0.878876203243416  0.771597783436505  0.40199898484294116  1.0000
  H   H29       1.0  0.6211237963882472  0.2715977832148979  0.40199898484294116  1.0000
  H   H30       1.0  0.878876203243416  0.2284022170067093  0.9019989852164234  1.0000
  H   H31       1.0  0.378876203366195  0.2715977832148979  0.09800101508778894  1.0000
  H   H32       1.0  0.12112379651102617  0.2284022170067093  0.598001015018519  1.0000
  H   H33       1.0  0.7239978861468984  0.7183117599723556  0.5189830008910498  1.0000
  H   H34       1.0  0.776002113484765  0.781688240121395  0.01898300096031969  1.0000
  H   H35       1.0  0.2760021136075439  0.7183117599723556  0.9810169993438926  1.0000
  H   H36       1.0  0.2239978862696772  0.781688240121395  0.48101699941316256  1.0000
  H   H37       1.0  0.2760021136075439  0.2816882398997879  0.48101699941316256  1.0000
  H   H38       1.0  0.2239978862696772  0.21831175975074854  0.9810169993438926  1.0000
  H   H39       1.0  0.7239978861468984  0.2816882398997879  0.01898300096031969  1.0000
  H   H40       1.0  0.776002113484765  0.21831175975074854  0.5189830008910498  1.0000
  C   C1        1.0  0.49999999987722116  0.6741326895740484  0.7500000001174713  1.0000
  C   C2        1.0  0.0  0.8258673105197024  0.2500000001867411  1.0000
  C   C3        1.0  0.49999999987722116  0.32586731029809524  0.2500000001867411  1.0000
  C   C4        1.0  0.0  0.1741326899235119  0.7500000001174713  1.0000
  C   C5        1.0  0.6724412978079599  0.7157795977850616  0.7139452812465941  1.0000
  C   C6        1.0  0.8275587018237035  0.7842204023086893  0.21394528131586382  1.0000
  C   C7        1.0  0.3275587019464823  0.7157795977850616  0.7860547185455964  1.0000
  C   C8        1.0  0.17244129793073884  0.7842204023086893  0.28605471861486625  1.0000
  C   C9        1.0  0.3275587019464823  0.28422040208708205  0.28605471861486625  1.0000
  C   C10       1.0  0.17244129793073884  0.2157795981345251  0.7860547185455964  1.0000
  C   C11       1.0  0.6724412978079599  0.28422040208708205  0.21394528131586382  1.0000
  C   C12       1.0  0.8275587018237035  0.2157795981345251  0.7139452812465941  1.0000
  C   C13       1.0  0.6729356848355388  0.7954471468597517  0.7119050727593937  1.0000
  C   C14       1.0  0.8270643147961246  0.7045528532339991  0.21190507282866364  1.0000
  C   C15       1.0  0.3270643149189035  0.7954471468597517  0.7880949274755488  1.0000
  C   C16       1.0  0.17293568495831763  0.7045528532339991  0.28809492754481864  1.0000
  C   C17       1.0  0.3270643149189035  0.20455285301239193  0.28809492754481864  1.0000
  C   C18       1.0  0.17293568495831763  0.2954471472092152  0.7880949274755488  1.0000
  C   C19       1.0  0.6729356848355388  0.20455285301239193  0.21190507282866364  1.0000
  C   C20       1.0  0.8270643147961246  0.2954471472092152  0.7119050727593937  1.0000
  C   C21       1.0  0.49999999987722116  0.8338463316254193  0.7500000001174713  1.0000
  C   C22       1.0  0.0  0.6661536684683314  0.2500000001867411  1.0000
  C   C23       1.0  0.49999999987722116  0.16615366881779495  0.2500000001867411  1.0000
  C   C24       1.0  0.0  0.3338463314038122  0.7500000001174713  1.0000
  C   C25       1.0  0.16676466104826004  0.40770779298136933  0.546495592543273  1.0000
  C   C26       1.0  0.3332353388289611  0.09229220724023783  0.04649559261254284  1.0000
  C   C27       1.0  0.8332353387061823  0.40770779298136933  0.9535044072489174  1.0000
  C   C28       1.0  0.6667646609254811  0.09229220724023783  0.4535044073181873  1.0000
  C   C29       1.0  0.8332353387061823  0.5922922068907743  0.4535044073181873  1.0000
  C   C30       1.0  0.6667646609254811  0.9077077926319058  0.9535044072489174  1.0000
  C   C31       1.0  0.16676466104826004  0.5922922068907743  0.04649559261254284  1.0000
  C   C32       1.0  0.3332353388289611  0.9077077926319058  0.546495592543273  1.0000
  C   C33       1.0  0.13406643768205645  0.47529735099783044  0.5761070236916468  1.0000
  C   C34       1.0  0.36593356219516465  0.02470264922377676  0.07610702376091666  1.0000
  C   C35       1.0  0.8659335620723858  0.47529735099783044  0.9238929761005436  1.0000
  C   C36       1.0  0.6340664375592776  0.02470264922377676  0.4238929761698134  1.0000
  C   C37       1.0  0.8659335620723858  0.5247026494453839  0.4238929761698134  1.0000
  C   C38       1.0  0.6340664375592776  0.9752973506483669  0.9238929761005436  1.0000
  C   C39       1.0  0.13406643768205645  0.5247026494453839  0.07610702376091666  1.0000
  C   C40       1.0  0.36593356219516465  0.9752973506483669  0.5761070236916468  1.0000
  C   C41       1.0  0.2901832516845015  0.5410819847670438  0.5613970820459103  1.0000
  C   C42       1.0  0.20981674819271964  0.9589180147556363  0.06139708211518022  1.0000
  C   C43       1.0  0.7098167480699408  0.5410819847670438  0.9386029181890321  1.0000
  C   C44       1.0  0.7901832515617226  0.9589180147556363  0.4386029178155499  1.0000
  C   C45       1.0  0.7098167480699408  0.4589180151050999  0.4386029178155499  1.0000
  C   C46       1.0  0.7901832515617226  0.04108198511650731  0.9386029181890321  1.0000
  C   C47       1.0  0.2901832516845015  0.4589180151050999  0.06139708211518022  1.0000
  C   C48       1.0  0.20981674819271964  0.04108198511650731  0.5613970820459103  1.0000
  C   C49       1.0  0.2562566229304561  0.6112625109730703  0.5903419866009082  1.0000
  C   C50       1.0  0.243743376946765  0.8887374891206806  0.09034198667017806  1.0000
  C   C51       1.0  0.7437433768239862  0.6112625109730703  0.9096580136340342  1.0000
  C   C52       1.0  0.7562566228076771  0.8887374891206806  0.4096580137033042  1.0000
  C   C53       1.0  0.7437433768239862  0.38873748889907345  0.4096580137033042  1.0000
  C   C54       1.0  0.7562566228076771  0.11126251075146304  0.9096580136340342  1.0000
  C   C55       1.0  0.2562566229304561  0.38873748889907345  0.09034198667017806  1.0000
  C   C56       1.0  0.243743376946765  0.11126251075146304  0.5903419866009082  1.0000
  C   C57       1.0  0.40974397556211567  0.6744227272303486  0.5748311470730763  1.0000
  C   C58       1.0  0.09025602431510545  0.8255772728634023  0.07483114714234612  1.0000
  C   C59       1.0  0.5902560241923266  0.6744227272303486  0.9251688527191141  1.0000
  C   C60       1.0  0.9097439754393367  0.8255772728634023  0.425168852788384  1.0000
  C   C61       1.0  0.5902560241923266  0.32557727321286584  0.425168852788384  1.0000
  C   C62       1.0  0.9097439754393367  0.17442272700874134  0.9251688527191141  1.0000
  C   C63       1.0  0.40974397556211567  0.32557727321286584  0.07483114714234612  1.0000
  C   C64       1.0  0.09025602431510545  0.17442272700874134  0.5748311470730763  1.0000
  C   C65       1.0  0.6016206312943898  0.6690462938891248  0.5304616710303219  1.0000
  C   C66       1.0  0.8983793703241839  0.8309537062046259  0.030461671099591837  1.0000
  C   C67       1.0  0.39837937044696287  0.6690462938891248  0.9695383287618684  1.0000
  C   C68       1.0  0.10162062943025828  0.8309537062046259  0.4695383288311383  1.0000
  C   C69       1.0  0.39837937044696287  0.3309537059830188  0.4695383288311383  1.0000
  C   C70       1.0  0.10162062943025828  0.1690462936675177  0.9695383287618684  1.0000
  C   C71       1.0  0.6016206312943898  0.3309537059830188  0.030461671099591837  1.0000
  C   C72       1.0  0.8983793703241839  0.1690462936675177  0.5304616710303219  1.0000
  C   C73       1.0  0.640481090465809  0.6000096091010266  0.4999329349363276  1.0000
  C   C74       1.0  0.8595189091658543  0.8999903909927243  0.9999329348670577  1.0000
  C   C75       1.0  0.35951890928863317  0.6000096091010266  6.70649944025083e-05  1.0000
  C   C76       1.0  0.14048109058858796  0.8999903909927243  0.5000670653678847  1.0000
  C   C77       1.0  0.35951890928863317  0.3999903913421878  0.5000670653678847  1.0000
  C   C78       1.0  0.14048109058858796  0.10000960887941941  6.70649944025083e-05  1.0000
  C   C79       1.0  0.640481090465809  0.3999903913421878  0.9999329348670577  1.0000
  C   C80       1.0  0.8595189091658543  0.10000960887941941  0.4999329349363276  1.0000
  C   C81       1.0  0.48278100887231845  0.5351526196732486  0.5153067541894061  1.0000
  C   C82       1.0  0.01721899100490269  0.9648473804205021  0.015306754258676036  1.0000
  C   C83       1.0  0.5172189908821238  0.5351526196732486  0.9846932460455362  1.0000
  C   C84       1.0  0.9827810087495396  0.9648473804205021  0.4846932461148062  1.0000
  C   C85       1.0  0.5172189908821238  0.46484738019889504  0.4846932461148062  1.0000
  C   C86       1.0  0.9827810087495396  0.03515262002271213  0.9846932460455362  1.0000
  C   C87       1.0  0.48278100887231845  0.46484738019889504  0.015306754258676036  1.0000
  C   C88       1.0  0.01721899100490269  0.03515262002271213  0.5153067541894061  1.0000
  F   F1        1.0  0.49999999987722116  0.91105416796447  0.7500000001174713  1.0000
  F   F2        1.0  0.0  0.5889458321292808  0.2500000001867411  1.0000
  F   F3        1.0  0.49999999987722116  0.08894583247874427  0.2500000001867411  1.0000
  F   F4        1.0  0.0  0.4110541677428629  0.7500000001174713  1.0000
  F   F5        1.0  0.8469095205601664  0.6773878043870792  0.6796668086802978  1.0000
  F   F6        1.0  0.6530904790714969  0.8226121957066715  0.17966680874956767  1.0000
  F   F7        1.0  0.15309047919427582  0.6773878043870792  0.8203331911118925  1.0000
  F   F8        1.0  0.34690952068294534  0.8226121957066715  0.32033319118116244  1.0000
  F   F9        1.0  0.15309047919427582  0.32261219605613506  0.32033319118116244  1.0000
  F   F10       1.0  0.34690952068294534  0.17738780416547206  0.8203331911118925  1.0000
  F   F11       1.0  0.8469095205601664  0.32261219605613506  0.17966680874956767  1.0000
  F   F12       1.0  0.6530904790714969  0.17738780416547206  0.6796668086802978  1.0000
  I   I1        1.0  0.49999999987722116  0.5549549668692818  0.7500000001174713  1.0000
  I   I2        1.0  0.0  0.9450450326533983  0.2500000001867411  1.0000
  I   I3        1.0  0.49999999987722116  0.4450450330028618  0.2500000001867411  1.0000
  I   I4        1.0  0.0  0.054954967218745335  0.7500000001174713  1.0000
  I   I5        1.0  0.9244196078370365  0.8544442693521652  0.6533764511260189  1.0000
  I   I6        1.0  0.5755803917946268  0.6455557307415857  0.15337645119528878  1.0000
  I   I7        1.0  0.0755803919174057  0.8544442693521652  0.8466235491089237  1.0000
  I   I8        1.0  0.4244196079598154  0.6455557307415857  0.3466235487354413  1.0000
  I   I9        1.0  0.0755803919174057  0.14555573051997847  0.3466235487354413  1.0000
  I   I10       1.0  0.4244196079598154  0.354444269130558  0.8466235491089237  1.0000
  I   I11       1.0  0.9244196078370365  0.14555573051997847  0.15337645119528878  1.0000
  I   I12       1.0  0.5755803917946268  0.354444269130558  0.6533764511260189  1.0000
