data_image0
_chemical_formula_structural       H32C34O14S2
_chemical_formula_sum              "H32 C34 O14 S2"
_cell_length_a       7.2361462975948845
_cell_length_b       9.599926632399423
_cell_length_c       12.139961506140484
_cell_angle_alpha    90.02278082104357
_cell_angle_beta     95.00898513786025
_cell_angle_gamma    110.57277475798536

_space_group_name_H-M_alt    "P 1"
_space_group_IT_number       1

loop_
  _space_group_symop_operation_xyz
  'x, y, z'

loop_
  _atom_site_type_symbol
  _atom_site_label
  _atom_site_symmetry_multiplicity
  _atom_site_fract_x
  _atom_site_fract_y
  _atom_site_fract_z
  _atom_site_occupancy
  H   H1        1.0  0.4030562291967286  0.6803728606542131  0.1938004375450091  1.0000
  H   H2        1.0  0.5969437713814112  0.3196271396797263  0.806199562415254  1.0000
  H   H3        1.0  0.013708926740194478  0.4155737710678764  0.27189625796773703  1.0000
  H   H4        1.0  0.9862910738323284  0.5844262292567769  0.7281037428159277  1.0000
  H   H5        1.0  0.08309604403304877  0.12492927732962243  0.6713764704657746  1.0000
  H   H6        1.0  0.9169039560374406  0.8750707218911743  0.32862352946085654  1.0000
  H   H7        1.0  0.9982964555132321  0.09427259639453356  0.8055843378369408  1.0000
  H   H8        1.0  0.0017035436719727772  0.9057274039271221  0.19441566205000518  1.0000
  H   H9        1.0  0.9153744065126498  0.9447713525696639  0.7038092754221082  1.0000
  H   H10       1.0  0.08462559406548993  0.05522864776427529  0.2961907245381549  1.0000
  H   H11       1.0  0.4691800026339978  0.8960871771843845  0.8425728044234561  1.0000
  H   H12       1.0  0.5308199979441419  0.10391282314955494  0.15742719553680706  1.0000
  H   H13       1.0  0.6278071903327884  0.7675764299683082  0.7254278986950192  1.0000
  H   H14       1.0  0.37219281023973455  0.2324235703563453  0.2745721020886454  1.0000
  H   H15       1.0  0.7598036581497548  0.6743996936041308  0.6210838888344546  1.0000
  H   H16       1.0  0.24019634103545012  0.32560030671752477  0.37891611105249134  1.0000
  H   H17       1.0  0.9018447121063644  0.5608985451491366  0.4885933657113922  1.0000
  H   H18       1.0  0.09815528847177524  0.43910145518480265  0.511406634248871  1.0000
  H   H19       1.0  0.10879319559483072  0.9506699335794015  0.5539922438779252  1.0000
  H   H20       1.0  0.8912068035903742  0.049330066742254076  0.4460077560090209  1.0000
  H   H21       1.0  0.8987343041596425  0.14541150837523206  0.030878488070237846  1.0000
  H   H22       1.0  0.10126569451791179  0.8545884908332809  0.9691215117830762  1.0000
  H   H23       1.0  0.936117963864981  0.2816981274326096  0.9223920074592328  1.0000
  H   H24       1.0  0.06388203531460687  0.71830187287976  0.07760799325111488  1.0000
  H   H25       1.0  0.7979379239986755  0.2926447777085951  0.03598533855113163  1.0000
  H   H26       1.0  0.20206207657946412  0.7073552226253441  0.9640146614091316  1.0000
  H   H27       1.0  0.45747442493971274  0.36851951800373434  0.0865523345125893  1.0000
  H   H28       1.0  0.5425255751307765  0.6314804812170624  0.9134476654140419  1.0000
  H   H29       1.0  0.32216774641213386  0.330265911990687  0.9518963538383192  1.0000
  H   H30       1.0  0.6778322541660059  0.6697340883432523  0.04810364612194408  1.0000
  H   H31       1.0  0.26324251964901824  0.188576683810271  0.05576690741555164  1.0000
  H   H32       1.0  0.7367574809291215  0.8114233165236683  0.9442330925447115  1.0000
  C   C1        1.0  0.04045544815123097  0.043165124659885375  0.7361746755259457  1.0000
  C   C2        1.0  0.9595445524269087  0.9568348756740539  0.26382532443431755  1.0000
  C   C3        1.0  0.28014660597441093  0.9323240201389975  0.7071853408003431  1.0000
  C   C4        1.0  0.7198533940960783  0.06767597908179895  0.2928146591262882  1.0000
  C   C5        1.0  0.42803000611691633  0.880007803408884  0.7537424381127608  1.0000
  C   C6        1.0  0.5719699930626717  0.11999219690348575  0.24625756259758683  1.0000
  C   C7        1.0  0.5167939093840515  0.8100707509681274  0.6877025633057101  1.0000
  C   C8        1.0  0.4832060898011534  0.18992924935352817  0.31229743658123593  1.0000
  C   C9        1.0  0.4649023684804732  0.7908045277169372  0.572338778965913  1.0000
  C   C10       1.0  0.5350976315900161  0.20919547150385945  0.42766122096071824  1.0000
  C   C11       1.0  0.5552197074982929  0.7214415027830116  0.49833842223586083  1.0000
  C   C12       1.0  0.4447802930798469  0.2785584975509279  0.5016615777244023  1.0000
  C   C13       1.0  0.7063350767612896  0.6676915266063244  0.5341229865610321  1.0000
  C   C14       1.0  0.29366492381685  0.33230847372761485  0.4658770133992312  1.0000
  C   C15       1.0  0.7856026260596717  0.6022508569496543  0.4585730037369944  1.0000
  C   C16       1.0  0.21439737451285126  0.39774914337499906  0.5414269970466704  1.0000
  C   C17       1.0  0.7237770800167064  0.5865190297705699  0.3445786056904685  1.0000
  C   C18       1.0  0.27622291916849845  0.41348097055108557  0.6554213941964775  1.0000
  C   C19       1.0  0.5725239947942012  0.6408727174427987  0.30639336246643906  1.0000
  C   C20       1.0  0.4274760043910037  0.3591272828788569  0.6936066374205069  1.0000
  C   C21       1.0  0.4887421661465081  0.7079636581327687  0.3841307145214648  1.0000
  C   C22       1.0  0.5112578330386969  0.2920363421888869  0.6158692853654812  1.0000
  C   C23       1.0  0.33634976626847585  0.7645058791836749  0.3436311840823296  1.0000
  C   C24       1.0  0.663650234309664  0.23549412115026452  0.6563688158779336  1.0000
  C   C25       1.0  0.3166058411661709  0.843411603338537  0.528791529001158  1.0000
  C   C26       1.0  0.6833941580190339  0.15658839698311844  0.47120847088578804  1.0000
  C   C27       1.0  0.22264393262319412  0.9130660205249157  0.5935302317216237  1.0000
  C   C28       1.0  0.7773560674472951  0.08693397869588104  0.4064697682050075  1.0000
  C   C29       1.0  0.8210316934254387  0.5167476362961662  0.26991591030553413  1.0000
  C   C30       1.0  0.17896830664505056  0.48325236292463064  0.7300840896210969  1.0000
  C   C31       1.0  0.9198661250696909  0.26107319721214384  0.01046235502864917  1.0000
  C   C32       1.0  0.08013387550844873  0.7389268031217955  0.9895376449316141  1.0000
  C   C33       1.0  0.31374324700786405  0.3083198120086227  0.04040344474394065  1.0000
  C   C34       1.0  0.6862567535702757  0.6916801883253165  0.9595965552163226  1.0000
  O   O1        1.0  0.20410858691054476  0.001285292711328686  0.778686352221953  1.0000
  O   O2        1.0  0.7958914136675951  0.9987147076226107  0.22131364773831025  1.0000
  O   O3        1.0  0.25506880837545426  0.8290788523957798  0.4169382956567067  1.0000
  O   O4        1.0  0.7449311908041337  0.1709211479165898  0.5830617050536411  1.0000
  O   O5        1.0  0.2713052323978918  0.7607573526727766  0.2448424987175203  1.0000
  O   O6        1.0  0.728694766787313  0.23924264764887906  0.7551575011694256  1.0000
  O   O7        1.0  0.5083256579414052  0.6325633620491244  0.19905984780888375  1.0000
  O   O8        1.0  0.49167434124379983  0.3674366382725312  0.8009401520780624  1.0000
  O   O9        1.0  0.788754803679221  0.5059539637380787  0.16788552538285717  1.0000
  O   O10       1.0  0.2112451968989188  0.4940460365958607  0.8321144745774061  1.0000
  O   O11       1.0  0.9509025853762975  0.4659838492715437  0.32549528179216  1.0000
  O   O12       1.0  0.04909741380890742  0.5340161510501118  0.674504718094786  1.0000
  O   O13       1.0  0.11919394776481769  0.3332944022189186  0.2083846006388745  1.0000
  O   O14       1.0  0.8808060523056714  0.666705597001878  0.7916153992877567  1.0000
  S   S1        1.0  0.1394512448753289  0.3826064113607398  0.08845372316928017  1.0000
  S   S2        1.0  0.8605487557028109  0.6173935889731995  0.911546276790983  1.0000
