data_image0
_chemical_formula_structural       H30C24N10O10
_chemical_formula_sum              "H30 C24 N10 O10"
_cell_length_a       8.127502176978897
_cell_length_b       12.725417364755181
_cell_length_c       7.542938339465802
_cell_angle_alpha    103.8301625875194
_cell_angle_beta     116.7534869721997
_cell_angle_gamma    73.05727800988255

_space_group_name_H-M_alt    "P 1"
_space_group_IT_number       1

loop_
  _space_group_symop_operation_xyz
  'x, y, z'

loop_
  _atom_site_type_symbol
  _atom_site_label
  _atom_site_symmetry_multiplicity
  _atom_site_fract_x
  _atom_site_fract_y
  _atom_site_fract_z
  _atom_site_occupancy
  H   H1        1.0  0.5894301229592157  0.5070725366074778  0.2991395548809112  1.0000
  H   H2        1.0  0.4105698765060058  0.49292746277739563  0.7008604452781828  1.0000
  H   H3        1.0  0.4439165843440338  0.6085910670338681  0.13922388255972362  1.0000
  H   H4        1.0  0.5560834162099138  0.3914089331742887  0.8607761184558517  1.0000
  H   H5        1.0  0.07902488420137248  0.8183616878742439  0.48156532319869755  1.0000
  H   H6        1.0  0.9209751166259162  0.18163831151268142  0.5184346762817846  1.0000
  H   H7        1.0  0.22947943541200083  0.7554687718168367  0.7059909292910032  1.0000
  H   H8        1.0  0.7705205637449855  0.244531228402947  0.2940090697405361  1.0000
  H   H9        1.0  0.10335959363021671  0.6737850780930758  0.4810293943338504  1.0000
  H   H10       1.0  0.8966404055267696  0.326214922126708  0.5189706046976887  1.0000
  H   H11       1.0  0.6555552235593446  0.9105975103359882  0.45602554332429057  1.0000
  H   H12       1.0  0.3444447756150887  0.08940248987695594  0.5439744570385725  1.0000
  H   H13       1.0  0.6998879025106349  0.9008772296529538  0.7065051254404316  1.0000
  H   H14       1.0  0.3001120966463513  0.09912277056682985  0.29349487359110754  1.0000
  H   H15       1.0  0.8541881371545005  0.8117788119349927  0.5956143632414977  1.0000
  H   H16       1.0  0.1458118620024859  0.188221188284791  0.4043856357900414  1.0000
  H   H17       1.0  0.18799909476077312  0.410719963913266  0.15771172220904903  1.0000
  H   H18       1.0  0.8120009044136601  0.5892800362996783  0.8422882781538141  1.0000
  H   H19       1.0  0.8802552912014987  0.5095086198160017  0.12759312375225146  1.0000
  H   H20       1.0  0.11974470935244878  0.49049138039215506  0.8724068772633237  1.0000
  H   H21       1.0  0.9738502622782179  0.4392821641282042  0.3178717167419532  1.0000
  H   H22       1.0  0.026149738258282505  0.560717836086792  0.682128282942298  1.0000
  H   H23       1.0  0.3490245106512722  0.04899561796141433  0.8339940971044804  1.0000
  H   H24       1.0  0.6509754898852282  0.9510043822535821  0.16600590257977085  1.0000
  H   H25       1.0  0.08322067314960109  0.9627800539269692  0.75324780364463  1.0000
  H   H26       1.0  0.9167793262981733  0.037219945464743685  0.24675219518314007  1.0000
  H   H27       1.0  0.8133163399949634  0.0742163159800592  0.843876676800888  1.0000
  H   H28       1.0  0.18668365917946975  0.925783684232885  0.15612332356197506  1.0000
  H   H29       1.0  0.8170623248739106  0.2642881648371522  0.012970943860615255  1.0000
  H   H30       1.0  0.1829376742830756  0.7357118353826316  0.9870290551709238  1.0000
  C   C1        1.0  0.3666492600909612  0.6128938723606892  0.37420846084755766  1.0000
  C   C2        1.0  0.6333507404629863  0.3871061278474676  0.6257915401680175  1.0000
  C   C3        1.0  0.5157821973909784  0.5940730023166021  0.2981614881206168  1.0000
  C   C4        1.0  0.4842178031455222  0.4059269978983941  0.7018385115636344  1.0000
  C   C5        1.0  0.655524809095833  0.6674576850547506  0.40262286975372946  1.0000
  C   C6        1.0  0.3444751917314556  0.3325423143321749  0.5973771297267526  1.0000
  C   C7        1.0  0.4324186802741394  0.7974837769214543  0.5304800623960582  1.0000
  C   C8        1.0  0.5675813202798081  0.2025162232867024  0.46951993861951696  1.0000
  C   C9        1.0  0.17546228174657566  0.7427132788095657  0.5422605705834309  1.0000
  C   C10       1.0  0.8245377188073718  0.2572867213985911  0.4577394304321442  1.0000
  C   C11       1.0  0.7089586979833769  0.8540630774301423  0.5683014787810425  1.0000
  C   C12       1.0  0.2910413025705706  0.1459369227780145  0.4316985222345327  1.0000
  C   C13       1.0  0.08041786505584078  0.2702456095415321  0.016829268931298685  1.0000
  C   C14       1.0  0.9195821341011453  0.7297543906782518  0.9831707301002405  1.0000
  C   C15       1.0  0.23125496888038904  0.2057620792667272  0.9610944703682559  1.0000
  C   C16       1.0  0.7687450316561115  0.794237920948269  0.03890552931599538  1.0000
  C   C17       1.0  0.23021053227054217  0.0953951310692015  0.8693758778483929  1.0000
  C   C18       1.0  0.7697894685567465  0.904604868317724  0.1306241216320892  1.0000
  C   C19       1.0  0.08221024332392676  0.047604357526791895  0.8252568408821581  1.0000
  C   C20       1.0  0.9177897572125735  0.9523956426882043  0.17474315880209282  1.0000
  C   C21       1.0  0.93159021304689  0.11027175255646836  0.8761150119462839  1.0000
  C   C22       1.0  0.06840978779784572  0.8897282468236175  0.12388498886552216  1.0000
  C   C23       1.0  0.9314253084931733  0.21723868280960848  0.9701643212294866  1.0000
  C   C24       1.0  0.06857469235156233  0.7827613165704775  0.029835679582319485  1.0000
  N   N1        1.0  0.3318138813834622  0.7150174389135289  0.4811686690318208  1.0000
  N   N2        1.0  0.6681861191704853  0.28498256129462785  0.5188313319837544  1.0000
  N   N3        1.0  0.5961014164257011  0.7693664188011174  0.4965505764360165  1.0000
  N   N4        1.0  0.403898582748732  0.23063358141182688  0.5034494239268464  1.0000
  N   N5        1.0  0.07457821826537464  0.3752585275025304  0.11028589538119861  1.0000
  N   N6        1.0  0.9254217809090585  0.6247414727104138  0.8897141049816644  1.0000
  N   N7        1.0  0.9237569460419917  0.43077988139111956  0.16490012710265795  1.0000
  N   N8        1.0  0.07624305313244163  0.5692201188218247  0.8350998732602051  1.0000
  N   N9        1.0  0.38706348912556715  0.24909616631492973  0.9943078714134143  1.0000
  N   N10       1.0  0.6129365114283802  0.7509038338932271  0.0056921296021609745  1.0000
  O   O1        1.0  0.2754232887639939  0.5426847106729101  0.34021026875565186  1.0000
  O   O2        1.0  0.7245767106837805  0.4573152887188028  0.659789730072118  1.0000
  O   O3        1.0  0.8127339554807208  0.640840623405563  0.3991951959072007  1.0000
  O   O4        1.0  0.18726604536401484  0.359159375974523  0.6008048049046054  1.0000
  O   O5        1.0  0.3829212417313636  0.8901801626656424  0.6091120708042346  1.0000
  O   O6        1.0  0.6170787588225841  0.10981983754251436  0.3908879302113408  1.0000
  O   O7        1.0  0.5127229655606074  0.19038674585783544  0.9380947450018626  1.0000
  O   O8        1.0  0.4872770338871671  0.8096132535338775  0.06190525382590748  1.0000
  O   O9        1.0  0.3957677648696436  0.3471037416360877  0.07987691705565848  1.0000
  O   O10       1.0  0.6042322359750919  0.6528962577439984  0.9201230837561475  1.0000
