data_image0
_chemical_formula_structural       H24C32N12O2F8I2
_chemical_formula_sum              "H24 C32 N12 O2 F8 I2"
_cell_length_a       7.5940787621624715
_cell_length_b       11.64865809047951
_cell_length_c       11.767384132688516
_cell_angle_alpha    113.3281986137077
_cell_angle_beta     103.14899509671264
_cell_angle_gamma    96.57759035609163

_space_group_name_H-M_alt    "P 1"
_space_group_IT_number       1

loop_
  _space_group_symop_operation_xyz
  'x, y, z'

loop_
  _atom_site_type_symbol
  _atom_site_label
  _atom_site_symmetry_multiplicity
  _atom_site_fract_x
  _atom_site_fract_y
  _atom_site_fract_z
  _atom_site_occupancy
  H   H1        1.0  0.7231310272892107  0.0737823925377433  0.45910419816860315  1.0000
  H   H2        1.0  0.2768689733026538  0.9262176080035902  0.5408958023428042  1.0000
  H   H3        1.0  0.8403051898590921  0.07374285334700471  0.9682983552811932  1.0000
  H   H4        1.0  0.1596948107327725  0.9262571471943287  0.03170164523021422  1.0000
  H   H5        1.0  0.5837861807536157  0.7788476195362192  0.052903818036938145  1.0000
  H   H6        1.0  0.41621381968938215  0.22115238014391345  0.9470961824812607  1.0000
  H   H7        1.0  0.6041349859216067  0.945523779408827  0.2713921167502911  1.0000
  H   H8        1.0  0.39586501335143404  0.05447622113040968  0.7286078837564199  1.0000
  H   H9        1.0  0.7061883323305608  0.3644677954981814  0.33652765209845276  1.0000
  H   H10       1.0  0.2938116678511366  0.6355322046181108  0.6634723474431283  1.0000
  H   H11       1.0  0.5047089843473822  0.2571030977447696  0.32112855010675506  1.0000
  H   H12       1.0  0.4952910158343153  0.7428969023715227  0.678871449434826  1.0000
  H   H13       1.0  0.8093158020853839  0.6371833848898578  0.7770911025944853  1.0000
  H   H14       1.0  0.19068419809631357  0.3628166152264345  0.22290889694709573  1.0000
  H   H15       1.0  0.4136589535011463  0.29202345341013586  0.5307542991060326  1.0000
  H   H16       1.0  0.5863410466805512  0.7079765467061564  0.46924570043554864  1.0000
  H   H17       1.0  0.021919578167102605  0.33183549531953305  0.4179487621150373  1.0000
  H   H18       1.0  0.9780804222758952  0.6681645043605995  0.5820512384031615  1.0000
  H   H19       1.0  0.9787537064775248  0.3324553463874228  0.5599314306789205  1.0000
  H   H20       1.0  0.02124629223648192  0.6675446528655719  0.44006856886475587  1.0000
  H   H21       1.0  0.30717758613195795  0.9804867705041345  0.32748785721334467  1.0000
  H   H22       1.0  0.6928224144599067  0.019513230037198986  0.6725121432980627  1.0000
  H   H23       1.0  0.10031274383804575  0.16949855104065523  0.6373137791394333  1.0000
  H   H24       1.0  0.8996872567538189  0.8305014495006783  0.36268622137197404  1.0000
  C   C1        1.0  0.9883655949118744  0.39081124231914605  0.892209848524652  1.0000
  C   C2        1.0  0.011634405120956214  0.6091887569359454  0.10779015102372068  1.0000
  C   C3        1.0  0.13457018469753795  0.49558129465149364  0.9318976615250824  1.0000
  C   C4        1.0  0.8654298153352925  0.5044187046035977  0.0681023380232903  1.0000
  C   C5        1.0  0.1430888916607933  0.6053715284349154  0.041673589819697855  1.0000
  C   C6        1.0  0.8569111083720372  0.39462847082017605  0.9583264097286748  1.0000
  C   C7        1.0  0.7347884925502046  0.10402957725800446  0.24656448939109535  1.0000
  C   C8        1.0  0.26521150804166005  0.8959704232833289  0.753435511120312  1.0000
  C   C9        1.0  0.797883177908716  0.1346498704453053  0.15700485917977175  1.0000
  C   C10       1.0  0.20211682095415742  0.8653501296688901  0.842995140357113  1.0000
  C   C11       1.0  0.7887586913076706  0.04500509430829503  0.03432279134896328  1.0000
  C   C12       1.0  0.21124130913532704  0.9549949053718375  0.9656772091692356  1.0000
  C   C13       1.0  0.7130101284722544  0.917674678650292  0.0011180066620488  1.0000
  C   C14       1.0  0.28698987170944307  0.08232532146600031  0.9988819928795324  1.0000
  C   C15       1.0  0.6450779243392226  0.8795165395815796  0.08359363568877948  1.0000
  C   C16       1.0  0.3549220747849513  0.1204834600964562  0.916406364824723  1.0000
  C   C17       1.0  0.6563415409219616  0.9740360721036182  0.20540634986334266  1.0000
  C   C18       1.0  0.3436584596699029  0.0259639284377151  0.7945936506480645  1.0000
  C   C19       1.0  0.7578824954619567  0.20374876434304645  0.38468858245218757  1.0000
  C   C20       1.0  0.24211750366221718  0.7962512353349893  0.615311418061315  1.0000
  C   C21       1.0  0.6485582945301381  0.3068783035620992  0.37939240316869643  1.0000
  C   C22       1.0  0.3514417055026925  0.6931216956929923  0.6206075963796762  1.0000
  C   C23       1.0  0.73215951057645  0.5476910585142453  0.6945522871217367  1.0000
  C   C24       1.0  0.2678404896052474  0.452308941602047  0.3054477124198445  1.0000
  C   C25       1.0  0.5290095745368557  0.37440612043697  0.5725044559372089  1.0000
  C   C26       1.0  0.47099042564484156  0.6255938796793222  0.42749554360437214  1.0000
  C   C27       1.0  0.9661638946394737  0.2710509399461133  0.45847610037946246  1.0000
  C   C28       1.0  0.03383610554222371  0.728949060170179  0.5415238991621187  1.0000
  C   C29       1.0  0.2370440627981959  0.04294414704881444  0.3882991669283079  1.0000
  C   C30       1.0  0.7629559364748448  0.9570558534904222  0.6117008335784031  1.0000
  C   C31       1.0  0.13520660149098426  0.13638300495771136  0.5471081353828207  1.0000
  C   C32       1.0  0.8647933991008804  0.8636169955836221  0.45289186512858676  1.0000
  N   N1        1.0  0.6454604235171562  0.393164243929981  0.5075096430638615  1.0000
  N   N2        1.0  0.35453957651567436  0.6068357553251105  0.4924903564845111  1.0000
  N   N3        1.0  0.7783025593196788  0.5038274755440739  0.5850060523926999  1.0000
  N   N4        1.0  0.22169743939432793  0.49617252370892073  0.4149939471509765  1.0000
  N   N5        1.0  0.578742778968387  0.4709768408776084  0.6911757984456268  1.0000
  N   N6        1.0  0.4212572197456198  0.5290231583753864  0.3088242010980496  1.0000
  N   N7        1.0  0.08278110995460913  0.18071176757579338  0.45786026920137424  1.0000
  N   N8        1.0  0.9172188906372555  0.8192882329655401  0.5421397313100331  1.0000
  N   N9        1.0  0.14786148118814935  0.12187865567794047  0.3549193188022054  1.0000
  N   N10       1.0  0.8521385189935481  0.878121344438352  0.6450806807393757  1.0000
  N   N11       1.0  0.23352456294441884  0.0487521227915764  0.506009956069021  1.0000
  N   N12       1.0  0.7664754374985789  0.9512478768885562  0.4939900444491778  1.0000
  O   O1        1.0  0.6776484029155101  0.15041457431876162  0.45459164176988565  1.0000
  O   O2        1.0  0.32235159726618745  0.8495854257975307  0.5454083577716956  1.0000
  F   F1        1.0  0.9702644125594252  0.2801931638574833  0.785504812207943  1.0000
  F   F2        1.0  0.029735587622272314  0.7198068362588091  0.2144951873336382  1.0000
  F   F3        1.0  0.2805741750934737  0.7121403583115533  0.08675816574807985  1.0000
  F   F4        1.0  0.719425823620533  0.28785964094144145  0.9132418337955964  1.0000
  F   F5        1.0  0.8763437987364859  0.2598721516460029  0.19062133313058927  1.0000
  F   F6        1.0  0.1236562001263876  0.7401278484681926  0.8093786664062954  1.0000
  F   F7        1.0  0.7061181279905059  0.8266408961635845  0.8819884182084559  1.0000
  F   F8        1.0  0.2938818726013586  0.17335910437774885  0.11801158230295138  1.0000
  I   I1        1.0  0.3343856314507992  0.48736700455270365  0.8310940664407587  1.0000
  I   I2        1.0  0.6656143674120745  0.5126329955614919  0.16890593309612617  1.0000
