data_image0
_chemical_formula_structural       H28C44N10O2F14I4
_chemical_formula_sum              "H28 C44 N10 O2 F14 I4"
_cell_length_a       12.971058789309694
_cell_length_b       5.843511080291189
_cell_length_c       16.33177760097736
_cell_angle_alpha    90.0
_cell_angle_beta     107.07714701176381
_cell_angle_gamma    90.0

_space_group_name_H-M_alt    "P 1"
_space_group_IT_number       1

loop_
  _space_group_symop_operation_xyz
  'x, y, z'

loop_
  _atom_site_type_symbol
  _atom_site_label
  _atom_site_symmetry_multiplicity
  _atom_site_fract_x
  _atom_site_fract_y
  _atom_site_fract_z
  _atom_site_occupancy
  H   H1        1.0  0.8044334751201152  0.6446608602669547  0.3713092915321046  1.0000
  H   H2        1.0  0.19556652493562907  0.1446608602918703  0.6286907089480671  1.0000
  H   H3        1.0  0.9922819261323228  0.04087079954473174  0.38087365368288734  1.0000
  H   H4        1.0  0.0077180736870031755  0.5408707995198161  0.6191263461567398  1.0000
  H   H5        1.0  0.8919315746503155  0.25347127260451635  0.33988350312239446  1.0000
  H   H6        1.0  0.10806842540542874  0.7534712725796008  0.6601164973577772  1.0000
  H   H7        1.0  0.7074553544744021  0.11111889086512067  0.24284155380605066  1.0000
  H   H8        1.0  0.29254464534492375  0.6111188908402051  0.7571584460335764  1.0000
  H   H9        1.0  0.6697545975048625  0.5913332006256434  0.2270819220328485  1.0000
  H   H10       1.0  0.3302454033219576  0.091333200650559  0.7729180784476718  1.0000
  H   H11       1.0  0.7000691730219991  0.7667897242656925  0.14830990140353148  1.0000
  H   H12       1.0  0.2999308278048209  0.2667897242906081  0.8516900990769888  1.0000
  H   H13       1.0  0.5779603592069145  0.8073560082588064  0.175090482116854  1.0000
  H   H14       1.0  0.4220396406124116  0.30735600828372195  0.8249095177227732  1.0000
  H   H15       1.0  0.6374908456302079  0.5854528849168406  0.4902256513783335  1.0000
  H   H16       1.0  0.36250915418911817  0.08545288494175611  0.5097743484612935  1.0000
  H   H17       1.0  0.4882987179482112  0.21645045292478024  0.4229704931766786  1.0000
  H   H18       1.0  0.5117012821075329  0.7164504528998646  0.5770295073034931  1.0000
  H   H19       1.0  0.9279644964868722  0.7622355222398322  0.5044057255548504  1.0000
  H   H20       1.0  0.07203550356887191  0.26223552226474767  0.49559427492532127  1.0000
  H   H21       1.0  0.787748591513597  0.33419170309893326  0.5850978749374015  1.0000
  H   H22       1.0  0.21225140830572903  0.8341917030740177  0.41490212490222567  1.0000
  H   H23       1.0  0.9727238320692875  0.5787551976082627  0.261339552968192  1.0000
  H   H24       1.0  0.027276168757532426  0.07875519763317833  0.7386604475123283  1.0000
  H   H25       1.0  0.056451051075377984  0.5901242476686057  0.1414618874166077  1.0000
  H   H26       1.0  0.943548948743948  0.09012424769352141  0.8585381124230195  1.0000
  H   H27       1.0  0.909536694800783  0.24894604117487348  0.06572080154363644  1.0000
  H   H28       1.0  0.09046330501854288  0.7489460411499578  0.9342791982959906  1.0000
  C   C1        1.0  0.3367886532476326  0.8089862746977852  0.09849042178745349  1.0000
  C   C2        1.0  0.6632113468081117  0.30898627472270085  0.9015095786927182  1.0000
  C   C3        1.0  0.3540690125691405  0.7396061991867797  0.18336378047435653  1.0000
  C   C4        1.0  0.6459309872501856  0.23960619921169538  0.8166362193652706  1.0000
  C   C5        1.0  0.3149010296326802  0.8685428880451596  0.23947953960059865  1.0000
  C   C6        1.0  0.6850989701866458  0.3685428880700752  0.7605204602390284  1.0000
  C   C7        1.0  0.2571362819209048  0.07013628867450988  0.2134142005377086  1.0000
  C   C8        1.0  0.7428637181348393  0.5701362886495942  0.7865857999424631  1.0000
  C   C9        1.0  0.2404161053212903  0.1386122929982769  0.12875678681698563  1.0000
  C   C10       1.0  0.759583894734454  0.6386122929733613  0.8712432136631861  1.0000
  C   C11       1.0  0.2785394677867386  0.010101023030328315  0.07178001467582651  1.0000
  C   C12       1.0  0.7214605320325874  0.5101010230054127  0.9282199851638006  1.0000
  C   C13       1.0  0.9064458913457693  0.0820655173594885  0.36816402896224387  1.0000
  C   C14       1.0  0.09355410847355668  0.5820655173345729  0.6318359708773832  1.0000
  C   C15       1.0  0.8431674578624818  0.8952964935148714  0.30518491546418947  1.0000
  C   C16       1.0  0.15683254195684423  0.39529649353978696  0.6948150843754377  1.0000
  C   C17       1.0  0.7191864092951021  0.9392761790958206  0.270697167462868  1.0000
  C   C18       1.0  0.280813590760642  0.4392761791207363  0.7293028330173038  1.0000
  C   C19       1.0  0.663796794545123  0.7650664110278749  0.20103551288844737  1.0000
  C   C20       1.0  0.33620320527420305  0.26506641105279044  0.7989644869511797  1.0000
  C   C21       1.0  0.6633682182674729  0.930692079688671  0.3393759303678583  1.0000
  C   C22       1.0  0.33663178155185297  0.4306920797135867  0.6606240694717689  1.0000
  C   C23       1.0  0.624414488697161  0.7368384659220053  0.449359933008358  1.0000
  C   C24       1.0  0.37558551189324085  0.23683846594692093  0.5506400668316177  1.0000
  C   C25       1.0  0.5410148965655759  0.0809335112917135  0.41226814824195834  1.0000
  C   C26       1.0  0.45898510325375014  0.5809335112667979  0.5877318515976688  1.0000
  C   C27       1.0  0.5928614616702901  0.10121642311843222  0.34948356797553154  1.0000
  C   C28       1.0  0.4071385381490359  0.6012164230935165  0.6505164318640956  1.0000
  C   C29       1.0  0.8953181117390281  0.9297251678573483  0.5101733452469122  1.0000
  C   C30       1.0  0.10468188831671611  0.4297251678822638  0.4898266552332596  1.0000
  C   C31       1.0  0.8230965342297221  0.22131171862782817  0.5478601025895952  1.0000
  C   C32       1.0  0.17690346582602207  0.7213117186029124  0.45213989789057646  1.0000
  C   C33       1.0  0.8928253815294527  0.901840285333624  0.231134317098634  1.0000
  C   C34       1.0  0.10717461828987335  0.40184028535853966  0.7688656827409931  1.0000
  C   C35       1.0  0.9586259540047415  0.7241725756750219  0.21798273035647295  1.0000
  C   C36       1.0  0.041374045814584495  0.22417257569993745  0.7820172694831541  1.0000
  C   C37       1.0  0.005792244714739818  0.7292783758677569  0.1514667028973492  1.0000
  C   C38       1.0  0.994207755875662  0.2292783758926725  0.8485332969426265  1.0000
  C   C39       1.0  0.9859255268419156  0.917608789702646  0.0974351718033806  1.0000
  C   C40       1.0  0.014074472977410499  0.4176087897275616  0.9025648280362466  1.0000
  C   C41       1.0  0.9231481686088763  0.10119192757148567  0.10777070509362392  1.0000
  C   C42       1.0  0.07685183121044979  0.60119192754657  0.8922292947460032  1.0000
  C   C43       1.0  0.8790325312991326  0.08848552572167519  0.17528628577413644  1.0000
  C   C44       1.0  0.12096746852019331  0.5884855256967596  0.8247137140654907  1.0000
  N   N1        1.0  0.8819919334548739  0.09301301093330272  0.4494445901147617  1.0000
  N   N2        1.0  0.11800806636445199  0.5930130109083871  0.5505554097248655  1.0000
  N   N3        1.0  0.835988022504603  0.2830120243252093  0.4729763403556773  1.0000
  N   N4        1.0  0.16401197755114125  0.7830120243002936  0.5270236601244943  1.0000
  N   N5        1.0  0.8585613919882864  0.0053299428326655926  0.5733828782544428  1.0000
  N   N6        1.0  0.14143860783103954  0.5053299428077499  0.42661712158518433  1.0000
  N   N7        1.0  0.6778174358031296  0.7459085745042857  0.39074488129264323  1.0000
  N   N8        1.0  0.3221825640161965  0.24590857452920137  0.6092551185469839  1.0000
  N   N9        1.0  0.5569766103053083  0.895568475543854  0.46303165403419294  1.0000
  N   N10       1.0  0.44302338951401765  0.3955684755687696  0.5369683458054342  1.0000
  O   O1        1.0  0.864178031204214  0.6777573013180022  0.34614900967439005  1.0000
  O   O2        1.0  0.13582196861511206  0.17775730134291778  0.6538509901652372  1.0000
  F   F1        1.0  0.4091501591869975  0.5454895757365723  0.21237536290528167  1.0000
  F   F2        1.0  0.5908498406323285  0.04548957576148789  0.7876246369343455  1.0000
  F   F3        1.0  0.33475565539510166  0.7936739207430219  0.3212511104175481  1.0000
  F   F4        1.0  0.6652443444242244  0.2936739207679375  0.6787488894220791  1.0000
  F   F5        1.0  0.18486314708138588  0.3329975631539377  0.09939611137516292  1.0000
  F   F6        1.0  0.8151368527379401  0.8329975631290221  0.9006038884644643  1.0000
  F   F7        1.0  0.256805662795844  0.08096528841978747  0.9896377543886979  1.0000
  F   F8        1.0  0.7431943370234819  0.5809652883948718  0.010362245450929085  1.0000
  F   F9        1.0  0.5755000920234926  0.28863905395657286  0.29832287684715575  1.0000
  F   F10       1.0  0.42449990779583335  0.7886390539316571  0.7016771229924713  1.0000
  F   F11       1.0  0.8193441788611165  0.27376084994439404  0.18596729314636673  1.0000
  F   F12       1.0  0.18065582119462767  0.7737608499194784  0.814032707333805  1.0000
  F   F13       1.0  0.030567500200013753  0.9267867991670051  0.03144110510681204  1.0000
  F   F14       1.0  0.9694325003903881  0.4267867991919208  0.9685588947331637  1.0000
  I   I1        1.0  0.39769127216437616  0.6164252143114792  0.015663335755654186  1.0000
  I   I2        1.0  0.6023087284260257  0.11642521433639486  0.9843366640843215  1.0000
  I   I3        1.0  0.1998101132146193  0.2609811856340324  0.30086268545140543  1.0000
  I   I4        1.0  0.8001898866047067  0.7609811856091168  0.6991373143882217  1.0000
