data_image0
_chemical_formula_structural       H10C12N2I4
_chemical_formula_sum              "H10 C12 N2 I4"
_cell_length_a       6.674115256539129
_cell_length_b       7.163651589543441
_cell_length_c       8.83479264322148
_cell_angle_alpha    69.44477421005587
_cell_angle_beta     84.5323686869239
_cell_angle_gamma    82.41799855815862

_space_group_name_H-M_alt    "P 1"
_space_group_IT_number       1

loop_
  _space_group_symop_operation_xyz
  'x, y, z'

loop_
  _atom_site_type_symbol
  _atom_site_label
  _atom_site_symmetry_multiplicity
  _atom_site_fract_x
  _atom_site_fract_y
  _atom_site_fract_z
  _atom_site_occupancy
  H   H1        1.0  0.01177750335587109  0.8703635265911376  0.6014816294393271  1.0000
  H   H2        1.0  0.9882224969186625  0.12963647311620896  0.3985183702336069  1.0000
  H   H3        1.0  0.3310840029765909  0.6757023693086098  0.7105748893764706  1.0000
  H   H4        1.0  0.6689159955753652  0.3242976317793202  0.28942511029690937  1.0000
  H   H5        1.0  0.0816717600054316  0.6539123246949171  0.18781473984915226  1.0000
  H   H6        1.0  0.9183282401924098  0.3460876745010169  0.8121852610343119  1.0000
  H   H7        1.0  0.7711508227477565  0.8538849274986402  0.05650512429886392  1.0000
  H   H8        1.0  0.22884917745008476  0.14611507169729362  0.9434948765846001  1.0000
  H   H9        1.0  0.4119890284879513  0.49096992160188035  0.17042130079385454  1.0000
  H   H10       1.0  0.5880109717865822  0.5090300781054661  0.8295786988790795  1.0000
  C   C1        1.0  0.03619180409113666  0.8220404656411806  0.7301153782594795  1.0000
  C   C2        1.0  0.963808195955201  0.17795953547520307  0.269884621410972  1.0000
  C   C3        1.0  0.21385974997839366  0.7116216338074529  0.7934107893404031  1.0000
  C   C4        1.0  0.786140250067944  0.2883783673089308  0.20658921033004837  1.0000
  C   C5        1.0  0.2367894383582357  0.6476289791190218  0.9613684519598368  1.0000
  C   C6        1.0  0.7632105619162979  0.35237102058832453  0.038631547713097306  1.0000
  C   C7        1.0  0.07370819035193835  0.7000815066949806  0.057008233723052776  1.0000
  C   C8        1.0  0.9262918084282138  0.2999184929839122  0.9429917659528098  1.0000
  C   C9        1.0  0.8998338570944836  0.8113412565295571  0.9852595283503851  1.0000
  C   C10       1.0  0.10016614168566843  0.18865874314933573  0.014740471325477402  1.0000
  C   C11       1.0  0.41704461483734573  0.5304291842841272  0.03896990547849291  1.0000
  C   C12       1.0  0.5829553853604957  0.46957081491180663  0.9610300954049711  1.0000
  N   N1        1.0  0.8828280232918292  0.8709386129920125  0.8245756592810414  1.0000
  N   N2        1.0  0.11717197698270428  0.12906138671533424  0.17542434039189275  1.0000
  I   I1        1.0  0.5926193013497327  0.07785199328177088  0.70278962217935  1.0000
  I   I2        1.0  0.40738069884810874  0.922148005914163  0.29721037870411393  1.0000
  I   I3        1.0  0.24752253705204483  0.3321647731801316  0.5515683749061877  1.0000
  I   I4        1.0  0.7524774631457966  0.6678352260158024  0.44843162597727637  1.0000
