data_image0
_chemical_formula_structural       H8C12N2I4
_chemical_formula_sum              "H8 C12 N2 I4"
_cell_length_a       4.274896172660385
_cell_length_b       8.036340418952202
_cell_length_c       11.615883262945669
_cell_angle_alpha    96.5253840773476
_cell_angle_beta     98.15222722956135
_cell_angle_gamma    102.66062503546513

_space_group_name_H-M_alt    "P 1"
_space_group_IT_number       1

loop_
  _space_group_symop_operation_xyz
  'x, y, z'

loop_
  _atom_site_type_symbol
  _atom_site_label
  _atom_site_symmetry_multiplicity
  _atom_site_fract_x
  _atom_site_fract_y
  _atom_site_fract_z
  _atom_site_occupancy
  H   H1        1.0  0.12611020843419776  0.1593238882893958  0.20627232839063928  1.0000
  H   H2        1.0  0.8738897912119442  0.8406761115764055  0.7937276712486393  1.0000
  H   H3        1.0  0.3663599694499415  0.9397585905002258  0.29078884616451506  1.0000
  H   H4        1.0  0.6336400306156749  0.06024140956725795  0.7092111543543536  1.0000
  H   H5        1.0  0.4270932662148581  0.2313172052122927  0.6347243173462984  1.0000
  H   H6        1.0  0.572906733431284  0.7686827946535087  0.36527568229298024  1.0000
  H   H7        1.0  0.17603545592797995  0.43363384433756347  0.53552595266774  1.0000
  H   H8        1.0  0.8239645446147167  0.5663661570037314  0.46447404784531793  1.0000
  C   C1        1.0  0.19344850241028072  0.16985934119844423  0.3015753065392974  1.0000
  C   C2        1.0  0.8065514972358613  0.8301406586673571  0.6984246930999812  1.0000
  C   C3        1.0  0.33164624794956193  0.04675254346682089  0.3499923733282327  1.0000
  C   C4        1.0  0.6683537540460049  0.9532474564239944  0.6500076263118887  1.0000
  C   C5        1.0  0.42443856359503224  0.06350102897520456  0.4723697243910663  1.0000
  C   C6        1.0  0.5755614360511098  0.9364989708905967  0.5276302752482124  1.0000
  C   C7        1.0  0.3652532556607798  0.20693968377342048  0.5391826051843519  1.0000
  C   C8        1.0  0.6347467439853621  0.7930603160923808  0.4608173944549268  1.0000
  C   C9        1.0  0.22210958905856057  0.3226277002980145  0.4831730547682752  1.0000
  C   C10       1.0  0.7778904105875815  0.6773722995677869  0.5168269448710034  1.0000
  C   C11       1.0  0.5920790965621958  0.553812758457499  0.04715601665744739  1.0000
  C   C12       1.0  0.4079209030839462  0.44618724140830246  0.9528439829818313  1.0000
  N   N1        1.0  0.13743692520239384  0.30639316752476103  0.36593021860761005  1.0000
  N   N2        1.0  0.8625630748632226  0.6936068325427228  0.6340697819112586  1.0000
  I   I1        1.0  0.8378369695519096  0.4756512213859734  0.19544621275115623  1.0000
  I   I2        1.0  0.16216303009423239  0.524348778479828  0.8045537868881225  1.0000
  I   I3        1.0  0.6526347466182335  0.8236582540375441  0.05760613985837178  1.0000
  I   I4        1.0  0.3473652534473829  0.17634174602993968  0.9423938606604969  1.0000
