data_image0
_chemical_formula_structural       H16C32N4F8I4
_chemical_formula_sum              "H16 C32 N4 F8 I4"
_cell_length_a       8.124805640641284
_cell_length_b       5.703872030926292
_cell_length_c       17.565806814997572
_cell_angle_alpha    90.0
_cell_angle_beta     96.08105402439439
_cell_angle_gamma    90.0

_space_group_name_H-M_alt    "P 1"
_space_group_IT_number       1

loop_
  _space_group_symop_operation_xyz
  'x, y, z'

loop_
  _atom_site_type_symbol
  _atom_site_label
  _atom_site_symmetry_multiplicity
  _atom_site_fract_x
  _atom_site_fract_y
  _atom_site_fract_z
  _atom_site_occupancy
  H   H1        1.0  0.4969224832112979  0.5940957969650826  0.18734852130851243  1.0000
  H   H2        1.0  0.5030775162823545  0.09409579792287869  0.31265147849325275  1.0000
  H   H3        1.0  0.5030775158191888  0.4059042028725203  0.8126514787580693  1.0000
  H   H4        1.0  0.49692248397883315  0.9059042019147242  0.6873485215729037  1.0000
  H   H5        1.0  0.3967585151698101  0.6490178636421512  0.05138420173260489  1.0000
  H   H6        1.0  0.6032414856865802  0.1490178628467522  0.44861579864124423  1.0000
  H   H7        1.0  0.6032414850913776  0.3509821361954518  0.9486157983335516  1.0000
  H   H8        1.0  0.3967585145746074  0.8509821369908508  0.5513842014249124  1.0000
  H   H9        1.0  0.6709529821706085  0.30188271943407685  0.05953243161706919  1.0000
  H   H10       1.0  0.32904701732304403  0.8018827202294759  0.440467568184696  1.0000
  H   H11       1.0  0.32904701685987836  0.698117280403526  0.9404675684495126  1.0000
  H   H12       1.0  0.6709529829381439  0.1981172796081271  0.5595324318814605  1.0000
  H   H13       1.0  0.7605043732417383  0.21779449175304494  0.19544370880253864  1.0000
  H   H14       1.0  0.23949562638395125  0.7177944925484439  0.3045562915717357  1.0000
  H   H15       1.0  0.23949562701944957  0.782205508084558  0.8045562912636178  1.0000
  H   H16       1.0  0.7605043726465355  0.28220550728915905  0.695443708494846  1.0000
  C   C1        1.0  0.9190724840380122  0.5910942850259693  0.43038006934622575  1.0000
  C   C2        1.0  0.0809275155876771  0.09109428423057032  0.06961993102804859  1.0000
  C   C3        1.0  0.08092751622317544  0.4089057148116337  0.5696199307199308  1.0000
  C   C4        1.0  0.9190724846735105  0.9089057156070327  0.930380069038108  1.0000
  C   C5        1.0  0.9125975290259922  0.7054722911352777  0.5000293254935139  1.0000
  C   C6        1.0  0.08740247063999283  0.20547229209307363  0.99997067426495  1.0000
  C   C7        1.0  0.08740247123519544  0.2945277087023254  0.49997067457264255  1.0000
  C   C8        1.0  0.912597528390494  0.7945277077445294  2.93258016317658e-05  1.0000
  C   C9        1.0  0.008115107164950489  0.38201179798315804  0.43177083755863344  1.0000
  C   C10       1.0  0.9918848936914398  0.882011797025362  0.06822916281521564  1.0000
  C   C11       1.0  0.9918848930962373  0.6179882018544449  0.5682291625075231  1.0000
  C   C12       1.0  0.008115106569747886  0.11798820281224096  0.931770837250941  1.0000
  C   C13       1.0  0.5337974370073361  0.748948170091792  0.15669997568991884  1.0000
  C   C14       1.0  0.4662025624863164  0.24894816929639307  0.34330002411184635  1.0000
  C   C15       1.0  0.46620256312181474  0.2510518314990059  0.8433000238037285  1.0000
  C   C16       1.0  0.5337974365441704  0.7510518305412098  0.6566999759547354  1.0000
  C   C17       1.0  0.4778990959787672  0.7810446755897019  0.07983369315159618  1.0000
  C   C18       1.0  0.5221009047455862  0.28104467479430295  0.42016630664974375  1.0000
  C   C19       1.0  0.5221009041503835  0.21895532424790104  0.9201663063420511  1.0000
  C   C20       1.0  0.4778990955156015  0.7189553250433  0.5798336934164127  1.0000
  C   C21       1.0  0.5266097690871576  0.9806724712040237  0.041201027057024234  1.0000
  C   C22       1.0  0.47339023053853174  0.4806724704086247  0.45879897331725006  1.0000
  C   C23       1.0  0.47339022994332913  0.019327528633579297  0.9587989730095575  1.0000
  C   C24       1.0  0.5266097697226559  0.5193275294289783  0.5412010267489064  1.0000
  C   C25       1.0  0.6283571199875445  0.14184886259950097  0.08465265413309844  1.0000
  C   C26       1.0  0.37164287950610797  0.6418488633948999  0.4153473456686667  1.0000
  C   C27       1.0  0.37164288027364323  0.858151137238102  0.9153473459330581  1.0000
  C   C28       1.0  0.6283571206230429  0.358151136442703  0.5846526538249806  1.0000
  C   C29       1.0  0.6790144901248709  0.0958800876027345  0.16134733558024356  1.0000
  C   C30       1.0  0.3209855095008185  0.5958800883981334  0.3386526647940308  1.0000
  C   C31       1.0  0.3209855089056159  0.9041199122348684  0.8386526644863382  1.0000
  C   C32       1.0  0.6790144907603692  0.40411991143946946  0.6613473352721257  1.0000
  N   N1        1.0  0.6341928034799077  0.9015323980129544  0.19696735644032864  1.0000
  N   N2        1.0  0.3658071961457817  0.4015323989707504  0.3030326439339457  1.0000
  N   N3        1.0  0.36580719555057906  0.09846760182464863  0.8030326436262532  1.0000
  N   N4        1.0  0.634192804115406  0.5984676008668526  0.6969673561322108  1.0000
  F   F1        1.0  0.8260694899612677  0.9095649414766898  0.5025336722899831  1.0000
  F   F2        1.0  0.17393050983675434  0.40956494068129073  0.9974663280409899  1.0000
  F   F3        1.0  0.17393051029992002  0.09043505836091326  0.4974663277761734  1.0000
  F   F4        1.0  0.8260694904244333  0.5904350591563122  0.002533672025166626  1.0000
  F   F5        1.0  0.02095672730562296  0.2612927730354369  0.3662588129856884  1.0000
  F   F6        1.0  0.9790432723200665  0.7612927720776408  0.13374118738858592  1.0000
  F   F7        1.0  0.9790432729555647  0.738707226802166  0.6337411870804681  1.0000
  F   F8        1.0  0.02095672671042033  0.23870722775996212  0.8662588126779958  1.0000
  I   I1        1.0  0.7996298751840275  0.7306952640946894  0.3271371951215767  1.0000
  I   I2        1.0  0.20037012430962492  0.23069526329929055  0.17286280468018853  1.0000
  I   I3        1.0  0.20037012507716018  0.26930473574291347  0.6728628049445798  1.0000
  I   I4        1.0  0.7996298758195258  0.7693047365383124  0.8271371948134588  1.0000
