data_image0
_chemical_formula_structural       H20C28N4I8
_chemical_formula_sum              "H20 C28 N4 I8"
_cell_length_a       8.912588142762985
_cell_length_b       7.767676819680994
_cell_length_c       12.841952424036604
_cell_angle_alpha    90.0
_cell_angle_beta     105.06882584405986
_cell_angle_gamma    90.0

_space_group_name_H-M_alt    "P 1"
_space_group_IT_number       1

loop_
  _space_group_symop_operation_xyz
  'x, y, z'

loop_
  _atom_site_type_symbol
  _atom_site_label
  _atom_site_symmetry_multiplicity
  _atom_site_fract_x
  _atom_site_fract_y
  _atom_site_fract_z
  _atom_site_occupancy
  H   H1        1.0  0.527252774598694  0.3017241737016875  0.07857944775904019  1.0000
  H   H2        1.0  0.5272527746730883  0.19827582631884666  0.5785794476565823  1.0000
  H   H3        1.0  0.4727472248466928  0.6982758263393809  0.9214205520626932  1.0000
  H   H4        1.0  0.47274722477229864  0.8017241737222218  0.4214205521651511  1.0000
  H   H5        1.0  0.7921861388485701  0.4230571850870281  0.11069824835241404  1.0000
  H   H6        1.0  0.7921861389229643  0.0769428149335061  0.6106982482499561  1.0000
  H   H7        1.0  0.207813861714298  0.5769428149540403  0.8893017514575527  1.0000
  H   H8        1.0  0.2078138616399038  0.9230571851075623  0.3893017515600107  1.0000
  H   H9        1.0  0.7516563109408657  0.35699601751890137  0.7692351360004632  1.0000
  H   H10       1.0  0.7516563108664716  0.14300398250163288  0.2692351361029211  1.0000
  H   H11       1.0  0.24834368962200243  0.6430039825221671  0.2307648638095036  1.0000
  H   H12       1.0  0.24834368969639667  0.8569960175394356  0.7307648637070457  1.0000
  H   H13       1.0  0.48602988437782907  0.2357439054828241  0.7532371543869888  1.0000
  H   H14       1.0  0.48602988430343486  0.2642560945377101  0.2532371544894467  1.0000
  H   H15       1.0  0.5139701161850391  0.7642560945582444  0.246762845422978  1.0000
  H   H16       1.0  0.5139701162594333  0.7357439055033583  0.7467628453205202  1.0000
  H   H17       1.0  0.9912303415027104  0.4714054954915569  0.8796363914459376  1.0000
  H   H18       1.0  0.9912303414283162  0.02859450452897728  0.3796363915483955  1.0000
  H   H19       1.0  0.00876965794267633  0.5285945045495115  0.12036360837579581  1.0000
  H   H20       1.0  0.008769658017070487  0.9714054955120911  0.6203636082733379  1.0000
  C   C1        1.0  0.5821490745343313  0.31574508143616675  0.012221665317840642  1.0000
  C   C2        1.0  0.5821490734912442  0.1842549185843675  0.5122216652271493  1.0000
  C   C3        1.0  0.41785092602853685  0.6842549186049017  0.987778334492126  1.0000
  C   C4        1.0  0.41785092595414275  0.8157450801693148  0.4877783345945841  1.0000
  C   C5        1.0  0.7301553749213683  0.38409551906699035  0.029505783081326627  1.0000
  C   C6        1.0  0.7301553749957624  0.11590448095354387  0.5295057829788686  1.0000
  C   C7        1.0  0.2698446248424439  0.6159044809740781  0.9704942175467484  1.0000
  C   C8        1.0  0.2698446255671057  0.8840955190875246  0.47049421683109804  1.0000
  C   C9        1.0  0.7973555318946626  0.4010545601107976  0.9421815389268084  1.0000
  C   C10       1.0  0.7973555318202683  0.09894543990973664  0.44218153902926627  1.0000
  C   C11       1.0  0.20264446866820562  0.5989454399302708  0.05781846088315845  1.0000
  C   C12       1.0  0.20264446762511845  0.9010545601313318  0.5578184607924671  1.0000
  C   C13       1.0  0.7067099594106291  0.34657073054058374  0.8403705133967321  1.0000
  C   C14       1.0  0.7067099593362349  0.1534292694799505  0.34037051349919  1.0000
  C   C15       1.0  0.29329004147066456  0.6534292695004847  0.15962948721957626  1.0000
  C   C16       1.0  0.2932900415450588  0.846570730561118  0.6596294871171184  1.0000
  C   C17       1.0  0.558995040293166  0.2791863526692222  0.8308658053945528  1.0000
  C   C18       1.0  0.558995040218772  0.22081364735131204  0.3308658054970108  1.0000
  C   C19       1.0  0.4410049594706461  0.7208136473718463  0.16913419523352205  1.0000
  C   C20       1.0  0.44100495954504026  0.7791863526897563  0.6691341951310642  1.0000
  C   C21       1.0  0.9523348149695884  0.47026006678661175  0.953502843785998  1.0000
  C   C22       1.0  0.9523348148951942  0.02973993323392247  0.4535028438884561  1.0000
  C   C23       1.0  0.04766518447579826  0.5297399332544567  0.04649715603573522  1.0000
  C   C24       1.0  0.04766518455019246  0.9702600668071459  0.5464971559332773  1.0000
  C   C25       1.0  0.022416716363065938  0.0008015330895622527  0.9540814137477533  1.0000
  C   C26       1.0  0.022416717406153086  0.499198466930972  0.4540814138384447  1.0000
  C   C27       1.0  0.9775832830823209  0.9991984669515062  0.045918586073979965  1.0000
  C   C28       1.0  0.977583283156715  0.5008015331100965  0.5459185859715221  1.0000
  N   N1        1.0  0.49690464249271166  0.26363647040661786  0.9151384969668063  1.0000
  N   N2        1.0  0.49690464209989205  0.23636352961391635  0.41513849626292265  1.0000
  N   N3        1.0  0.5030953572711006  0.7363635296344505  0.08486150366126866  1.0000
  N   N4        1.0  0.5030953573454947  0.7636364704271521  0.5848615035588107  1.0000
  I   I1        1.0  0.23050023256675944  0.11587617905516379  0.9324951888707482  1.0000
  I   I2        1.0  0.2305002324923652  0.38412382096537045  0.4324951889732061  1.0000
  I   I3        1.0  0.7694997679961088  0.8841238209859046  0.06750481093921858  1.0000
  I   I4        1.0  0.7694997683889283  0.615876179075698  0.5675048116431023  1.0000
  I   I5        1.0  0.8931812618958853  0.8738385887530733  0.8132274545535538  1.0000
  I   I6        1.0  0.893181261821491  0.6261614113085294  0.31322745465601176  1.0000
  I   I7        1.0  0.10681873754950151  0.12616141128799516  0.18677254526817955  1.0000
  I   I8        1.0  0.10681873794232108  0.37383858873253906  0.6867725459720632  1.0000
