data_image0
_chemical_formula_structural       H12C28N4S12I4
_chemical_formula_sum              "H12 C28 N4 S12 I4"
_cell_length_a       7.465257823553719
_cell_length_b       9.62357557459561
_cell_length_c       13.080253412229299
_cell_angle_alpha    81.34285713322785
_cell_angle_beta     74.26031575610207
_cell_angle_gamma    86.01158557039173

_space_group_name_H-M_alt    "P 1"
_space_group_IT_number       1

loop_
  _space_group_symop_operation_xyz
  'x, y, z'

loop_
  _atom_site_type_symbol
  _atom_site_label
  _atom_site_symmetry_multiplicity
  _atom_site_fract_x
  _atom_site_fract_y
  _atom_site_fract_z
  _atom_site_occupancy
  H   H1        1.0  0.46919711237419176  0.09881270183396433  0.05140307827885838  1.0000
  H   H2        1.0  0.5308028878892613  0.9011872979989997  0.9485969221898256  1.0000
  H   H3        1.0  0.26785627876872886  0.09343526866134014  0.0029085028105594463  1.0000
  H   H4        1.0  0.7321437218642846  0.906564731309995  0.99709149685627  1.0000
  H   H5        1.0  0.18507716760070106  0.34336810265427714  0.03217300789847723  1.0000
  H   H6        1.0  0.8149228313248861  0.6566318971639004  0.9678269925697648  1.0000
  H   H7        1.0  0.41216961704041827  0.32618032099987987  0.9448972907463529  1.0000
  H   H8        1.0  0.5878303834821527  0.6738196800137762  0.05510270891599582  1.0000
  H   H9        1.0  0.6825983041313985  0.17075430088574514  0.3534601573855715  1.0000
  H   H10       1.0  0.3174016951637491  0.8292456990708035  0.6465398422808157  1.0000
  H   H11       1.0  0.607214982815691  0.22030326041591045  0.5393083049017646  1.0000
  H   H12       1.0  0.3927850178173225  0.7796967395554247  0.46069169476506483  1.0000
  C   C1        1.0  0.021945008767837077  0.32009335362404856  0.7512616662344797  1.0000
  C   C2        1.0  0.9780549918651762  0.6799066463472867  0.24873833343234966  1.0000
  C   C3        1.0  0.11613881735282722  0.4414163853600624  0.7165484384313565  1.0000
  C   C4        1.0  0.8838611832801861  0.5585836146112728  0.28345156123547277  1.0000
  C   C5        1.0  0.14445050438149087  0.32987224280695854  0.5455087032529999  1.0000
  C   C6        1.0  0.8555494949136568  0.6701277571495899  0.45449129641338737  1.0000
  C   C7        1.0  0.18855724394951848  0.30292995819018864  0.44073700666957266  1.0000
  C   C8        1.0  0.8114427563139346  0.6970700416427752  0.5592629937991115  1.0000
  C   C9        1.0  0.22255447407328985  0.19759992183051917  0.26604398775437416  1.0000
  C   C10       1.0  0.7774455252218575  0.8024000781260293  0.7339560119120132  1.0000
  C   C11       1.0  0.3158865272512242  0.3211498267235017  0.23501532922935414  1.0000
  C   C12       1.0  0.6841134733817892  0.6788501732478334  0.7649846704374753  1.0000
  C   C13       1.0  0.32736997665601203  0.1411601008964775  0.057155293100132766  1.0000
  C   C14       1.0  0.6726300226391357  0.8588398990600712  0.9428447065662544  1.0000
  C   C15       1.0  0.3260620968361322  0.29958761385073834  0.027517558229505967  1.0000
  C   C16       1.0  0.6739379034273209  0.7004123859822258  0.9724824422391781  1.0000
  C   C17       1.0  0.6817921320015008  0.03805501123899663  0.1969176691558844  1.0000
  C   C18       1.0  0.31820786826195213  0.9619449885939673  0.8030823313127997  1.0000
  C   C19       1.0  0.5886272346451863  0.9421914650202005  0.28292650094104843  1.0000
  C   C20       1.0  0.4113727646499613  0.057808534936347945  0.7170734987253389  1.0000
  C   C21       1.0  0.5336370250899867  0.8194558665348993  0.25537262581219905  1.0000
  C   C22       1.0  0.4663629740947187  0.18054413446397014  0.7446273738497076  1.0000
  C   C23       1.0  0.5435446532852748  0.9713603914803883  0.39208804684624715  1.0000
  C   C24       1.0  0.4564553472372964  0.028639609533267822  0.6079119528161014  1.0000
  C   C25       1.0  0.6022046800053106  0.09566759232477567  0.4175923085206466  1.0000
  C   C26       1.0  0.39779532062770284  0.9043324076465595  0.5824076911461828  1.0000
  C   C27       1.0  0.5597281082498062  0.12372010729493597  0.5221204379961049  1.0000
  C   C28       1.0  0.44027189067578104  0.8762798925232413  0.4778795624721372  1.0000
  N   N1        1.0  0.7590839207006987  0.1183454158818825  0.12385638316893623  1.0000
  N   N2        1.0  0.24091607993231473  0.8816545840894526  0.8761436164978932  1.0000
  N   N3        1.0  0.4888844077280233  0.7167905473010042  0.2313315317836582  1.0000
  N   N4        1.0  0.5111155925354297  0.2832094525319598  0.7686684686850259  1.0000
  S   S1        1.0  0.0142601105301857  0.21912122524006822  0.653229281301032  1.0000
  S   S2        1.0  0.9857398901028276  0.7808787747312669  0.34677071836579737  1.0000
  S   S3        1.0  0.21776099301102048  0.48077050984233477  0.579626481892284  1.0000
  S   S4        1.0  0.782239007621993  0.5192294901290004  0.4203735177745453  1.0000
  S   S5        1.0  0.12279093500226937  0.15344231554958251  0.4030930782268637  1.0000
  S   S6        1.0  0.8772090656307442  0.8465576844217528  0.5969069214399656  1.0000
  S   S7        1.0  0.31825271156823987  0.41883451672555055  0.3370126378698732  1.0000
  S   S8        1.0  0.6817472886952131  0.5811654831074134  0.662987362598811  1.0000
  S   S9        1.0  0.17849859069793897  0.07967512196535953  0.1885137188862564  1.0000
  S   S10       1.0  0.821501409565514  0.9203248778676044  0.8114862815824277  1.0000
  S   S11       1.0  0.43184736910293536  0.39180014919054146  0.105667935738513  1.0000
  S   S12       1.0  0.5681526315300781  0.6081998507807936  0.8943320639283163  1.0000
  I   I1        1.0  0.9035621352852896  0.2389629989923587  0.9111409741819964  1.0000
  I   I2        1.0  0.09643786497816327  0.7610370008406052  0.08885902628668779  1.0000
  I   I3        1.0  0.16284648343469355  0.5840651006147823  0.8097038774112093  1.0000
  I   I4        1.0  0.8371535153804512  0.41593490024571594  0.1902961230525521  1.0000
