data_image0
_chemical_formula_structural       H44C54N8O8S4Cl12
_chemical_formula_sum              "H44 C54 N8 O8 S4 Cl12"
_cell_length_a       7.006252101410877
_cell_length_b       15.226728256383467
_cell_length_c       16.254522329813913
_cell_angle_alpha    107.31501682275015
_cell_angle_beta     101.146644423875
_cell_angle_gamma    99.87313634089136

_space_group_name_H-M_alt    "P 1"
_space_group_IT_number       1

loop_
  _space_group_symop_operation_xyz
  'x, y, z'

loop_
  _atom_site_type_symbol
  _atom_site_label
  _atom_site_symmetry_multiplicity
  _atom_site_fract_x
  _atom_site_fract_y
  _atom_site_fract_z
  _atom_site_occupancy
  H   H1        1.0  0.4649009767545673  0.7486420687908524  0.41421710455359817  1.0000
  H   H2        1.0  0.5350990237228793  0.25135793157980457  0.5857828953427231  1.0000
  H   H3        1.0  0.6734832938949524  0.42203669036872415  0.07218164773930053  1.0000
  H   H4        1.0  0.32651670490103646  0.5779633093407426  0.9278183521600901  1.0000
  H   H5        1.0  0.6056526419989823  0.017464210180572842  0.9610837976684432  1.0000
  H   H6        1.0  0.39434735847846436  0.9825357901900841  0.03891620222787816  1.0000
  H   H7        1.0  0.8706299068350641  0.7296532666454378  0.7802100431307064  1.0000
  H   H8        1.0  0.12937009338747607  0.27034673306030155  0.21978995677019308  1.0000
  H   H9        1.0  0.11647593853870475  0.7595316124352534  0.6781981783173603  1.0000
  H   H10       1.0  0.8835240623270457  0.24046838818275248  0.32180182224627457  1.0000
  H   H11       1.0  0.864076301803664  0.9599036827916525  0.7400994546799249  1.0000
  H   H12       1.0  0.13592369699232495  0.04009631691781428  0.2599005452194659  1.0000
  H   H13       1.0  0.12324161637865812  0.10180482341698115  0.8773383768376778  1.0000
  H   H14       1.0  0.8767583838438822  0.8981951762887583  0.12266162306322177  1.0000
  H   H15       1.0  0.47053419681304476  0.7085222842046139  0.6819623315327122  1.0000
  H   H16       1.0  0.5294658034094955  0.2914777155011255  0.31803766836818725  1.0000
  H   H17       1.0  0.45154157025373987  0.6477912718145015  0.5191976354541199  1.0000
  H   H18       1.0  0.5484584306120108  0.35220872880350457  0.48080236510951513  1.0000
  H   H19       1.0  0.4776023432067244  0.9136541690169434  0.49906954732071535  1.0000
  H   H20       1.0  0.5223976574041198  0.08634583093614519  0.500930453247498  1.0000
  H   H21       1.0  0.495002056766368  0.987236412891538  0.6616334696618753  1.0000
  H   H22       1.0  0.5049979438444762  0.01276358706155047  0.33836653090633795  1.0000
  H   H23       1.0  0.6535669432732709  0.8735117089836988  0.9696852500201417  1.0000
  H   H24       1.0  0.34643305694926935  0.12648829072204057  0.030314749880757746  1.0000
  H   H25       1.0  0.3556697295480312  0.7474114413713357  0.9515399440598621  1.0000
  H   H26       1.0  0.644330270674509  0.25258855833440375  0.048460055841037464  1.0000
  H   H27       1.0  0.6741298793383551  0.5403283851719286  0.9128277809543386  1.0000
  H   H28       1.0  0.32587012113909153  0.4596716151987283  0.08717221894198271  1.0000
  H   H29       1.0  0.9879807897993366  0.657263028233434  0.927816474648465  1.0000
  H   H30       1.0  0.01201921042320352  0.3427369714723054  0.0721835252524346  1.0000
  H   H31       1.0  0.5449027067922783  0.6922984575743082  0.19570691452374234  1.0000
  H   H32       1.0  0.4550972934302619  0.3077015421314312  0.8042930853771572  1.0000
  H   H33       1.0  0.6771124813269056  0.8113158268404814  0.21844676160042065  1.0000
  H   H34       1.0  0.3228875181122936  0.1886841737812519  0.7815532389617056  1.0000
  H   H35       1.0  0.09744112684629366  0.5929883937038485  0.06394783069573026  1.0000
  H   H36       1.0  0.9025588719496951  0.40701160600561825  0.9360521692036605  1.0000
  H   H37       1.0  0.167000260824881  0.5887567349450371  0.17388731800007973  1.0000
  H   H38       1.0  0.832999739397659  0.4112432647607023  0.8261126819008198  1.0000
  H   H39       1.0  0.7113529804464066  0.6645919378422231  0.40525451828481684  1.0000
  H   H40       1.0  0.28864701977613355  0.3354080618635163  0.5947454816160828  1.0000
  H   H41       1.0  0.6456172668756868  0.5461301885854513  0.25664412272674647  1.0000
  H   H42       1.0  0.35438273334685333  0.45386981112028807  0.7433558771741532  1.0000
  H   H43       1.0  0.7988800599682516  0.9700156141155367  0.426668712143591  1.0000
  H   H44       1.0  0.20111994025428853  0.029984385590202764  0.5733312877573085  1.0000
  C   C1        1.0  0.11943651601855712  0.8415562043575074  0.8918404718691949  1.0000
  C   C2        1.0  0.8805634842039829  0.15844379534823183  0.10815952803170452  1.0000
  C   C3        1.0  0.018490181737341044  0.7775418352203628  0.8013851798381908  1.0000
  C   C4        1.0  0.9815098173135544  0.22245816515402145  0.19861482005662182  1.0000
  C   C5        1.0  0.1432975654261653  0.7927297468018341  0.7497382825838562  1.0000
  C   C6        1.0  0.8567024350512813  0.20727025356882284  0.250261717312465  1.0000
  C   C7        1.0  0.32196056994503097  0.8641420266651985  0.8095800780115265  1.0000
  C   C8        1.0  0.6780394305324157  0.1358579737054585  0.19041992188479487  1.0000
  C   C9        1.0  0.49155338872975435  0.8947630233612388  0.7812913598969473  1.0000
  C   C10       1.0  0.5084466114927858  0.10523697634450065  0.21870864000395218  1.0000
  C   C11       1.0  0.6679149633328978  0.9633996879873462  0.8340937311666304  1.0000
  C   C12       1.0  0.33208503714454884  0.0366003123833108  0.1659062687296908  1.0000
  C   C13       1.0  0.8437783698632506  0.9911305142442363  0.8060385324769421  1.0000
  C   C14       1.0  0.15622162918764473  0.00886948613014789  0.1939614674178703  1.0000
  C   C15       1.0  0.9770320303478769  0.06371460964337503  0.8764760929369771  1.0000
  C   C16       1.0  0.022967968703018475  0.9362853907310092  0.12352390695783537  1.0000
  C   C17       1.0  0.889229541148662  0.08139234334793889  0.9506809682698136  1.0000
  C   C18       1.0  0.11077045907387811  0.9186076563578006  0.04931903163108595  1.0000
  C   C19       1.0  0.0326364476916182  0.8490656539089534  0.9642310539042704  1.0000
  C   C20       1.0  0.9673635527858285  0.15093434646170362  0.03576894599205083  1.0000
  C   C21       1.0  0.4838008085285202  0.8532749319904972  0.6851581825484913  1.0000
  C   C22       1.0  0.51619919169402  0.14672506771524227  0.31484181735240824  1.0000
  C   C23       1.0  0.4722343159085355  0.7567373211441226  0.6442217457851467  1.0000
  C   C24       1.0  0.5277656828874534  0.2432626785653441  0.3557782541142441  1.0000
  C   C25       1.0  0.46195804186057643  0.7225248676405474  0.5537320288165721  1.0000
  C   C26       1.0  0.5380419583619638  0.2774751320651921  0.4462679710843274  1.0000
  C   C27       1.0  0.4762257967929255  0.8720881716884478  0.5432352102179218  1.0000
  C   C28       1.0  0.5237742022579698  0.12791182868593648  0.45676478967689066  1.0000
  C   C29       1.0  0.4866808637102398  0.9117810543628606  0.6331379781808587  1.0000
  C   C30       1.0  0.5133191365123003  0.08821894534287879  0.36686202172004084  1.0000
  C   C31       1.0  0.8475841542483057  0.7765303684834264  0.9511467414224976  1.0000
  C   C32       1.0  0.15241584597423455  0.22346963122231311  0.048853258478402065  1.0000
  C   C33       1.0  0.6663045994412158  0.8009942322889017  0.9579257155104942  1.0000
  C   C34       1.0  0.3336953996096796  0.19900576808548257  0.04207428438431831  1.0000
  C   C35       1.0  0.49948852193474963  0.7308999703942546  0.947740310186443  1.0000
  C   C36       1.0  0.5005114785426972  0.2691000299764025  0.0522596897098784  1.0000
  C   C37       1.0  0.6781220706375864  0.6151655546416352  0.9252070125218317  1.0000
  C   C38       1.0  0.3218779295849537  0.38483444506410425  0.07479298737906778  1.0000
  C   C39       1.0  0.8513875348342762  0.6808280365734026  0.9334280485962472  1.0000
  C   C40       1.0  0.1486124642166191  0.3191719638009817  0.06657195129856536  1.0000
  C   C41       1.0  0.5163095469949902  0.79559581873359  0.3148877581457731  1.0000
  C   C42       1.0  0.48369045180099857  0.20440418097587673  0.6851122417536176  1.0000
  C   C43       1.0  0.5385427757027318  0.7664903992432223  0.22058823340414457  1.0000
  C   C44       1.0  0.46145722477471485  0.2335096011274346  0.7794117664921767  1.0000
  C   C45       1.0  0.05992809728268958  0.6095600499427001  0.12857664941902294  1.0000
  C   C46       1.0  0.9400719031947572  0.3904399504279568  0.8714233504772984  1.0000
  C   C47       1.0  0.8517160900658528  0.553050095487549  0.11778945536038472  1.0000
  C   C48       1.0  0.14828391015668738  0.44694990421819036  0.8822105445405147  1.0000
  C   C49       1.0  0.796823153175254  0.61023570678651  0.3957404133898062  1.0000
  C   C50       1.0  0.20317684704728614  0.3897642929192293  0.6042595865110932  1.0000
  C   C51       1.0  0.6716210968831374  0.5241779623274219  0.31557457700575225  1.0000
  C   C52       1.0  0.32837890333940273  0.47582203737831746  0.6844254228951472  1.0000
  C   C53       1.0  0.9622688712248432  0.996941157922497  0.45149725634872917  1.0000
  C   C54       1.0  0.03773112899769694  0.0030588417832422958  0.5485027435521702  1.0000
  N   N1        1.0  0.3022529366459339  0.8944323181809799  0.8952579236984166  1.0000
  N   N2        1.0  0.6977470624049614  0.10556768219340451  0.10474207619639585  1.0000
  N   N3        1.0  0.7045792777792866  0.017928575331360417  0.9225391113438799  1.0000
  N   N4        1.0  0.2954207210167024  0.9820714243781065  0.07746088855551088  1.0000
  N   N5        1.0  0.46391196454338585  0.77949076860878  0.5045762245829186  1.0000
  N   N6        1.0  0.5360880363223648  0.22050923200922606  0.49542377598071635  1.0000
  N   N7        1.0  0.5060023473030533  0.6401384188622219  0.9326195122003349  1.0000
  N   N8        1.0  0.4939976533077908  0.3598615810908666  0.06738048836787822  1.0000
  O   O1        1.0  0.47582713629079587  0.7233784738001977  0.34288817054179505  1.0000
  O   O2        1.0  0.524172862505193  0.27662152590926903  0.6571118293575957  1.0000
  O   O3        1.0  0.5321321154895875  0.879338060679739  0.359768418396412  1.0000
  O   O4        1.0  0.4678678849878592  0.1206619396909181  0.6402315814999093  1.0000
  O   O5        1.0  0.7229148430285226  0.5887797004109171  0.14804322572370715  1.0000
  O   O6        1.0  0.2770851571940176  0.4112202992948223  0.8519567741771923  1.0000
  O   O7        1.0  0.8245824115425163  0.46203669762656135  0.07363533642619688  1.0000
  O   O8        1.0  0.1754175889349303  0.5379633027440957  0.9263646634701245  1.0000
  S   S1        1.0  0.3381614044696066  0.7887261178096745  0.1451529857431984  1.0000
  S   S2        1.0  0.6618385943263823  0.21127388189979215  0.8548470141561922  1.0000
  S   S3        1.0  0.08269745665770753  0.7366116023895927  0.17511132979195576  1.0000
  S   S4        1.0  0.9173025435648327  0.2633883973161468  0.8248886701089437  1.0000
  Cl  Cl1       1.0  0.8518975668956762  0.5851375066991024  0.4966066096398127  1.0000
  Cl  Cl2       1.0  0.14810243397007425  0.41486249391890356  0.5033933909238223  1.0000
  Cl  Cl3       1.0  0.018312013740511876  0.6582761947514314  0.37073936513785977  1.0000
  Cl  Cl4       1.0  0.9816879864820284  0.341723804954308  0.6292606347630398  1.0000
  Cl  Cl5       1.0  0.4320065373638239  0.48441213086278023  0.33248248538763797  1.0000
  Cl  Cl6       1.0  0.5679934628587162  0.5155878688429592  0.6675175145132615  1.0000
  Cl  Cl7       1.0  0.794686795141969  0.4304954899877167  0.29076620466412745  1.0000
  Cl  Cl8       1.0  0.2053132040423238  0.5695045099690991  0.709233795902577  1.0000
  Cl  Cl9       1.0  0.06970177344791788  0.9174938452832894  0.38094846425955964  1.0000
  Cl  Cl10      1.0  0.9302982259912816  0.082506155338444  0.6190515363025667  1.0000
  Cl  Cl11      1.0  0.026222760902260236  0.11173463382629556  0.44227212440759894  1.0000
  Cl  Cl12      1.0  0.973777239708584  0.888265366126793  0.5577278761606144  1.0000
