data_image0
_chemical_formula_structural       H30C38N6O4
_chemical_formula_sum              "H30 C38 N6 O4"
_cell_length_a       8.459830575181211
_cell_length_b       8.821003028263254
_cell_length_c       11.018586955253285
_cell_angle_alpha    85.35510887322053
_cell_angle_beta     71.45596067694595
_cell_angle_gamma    78.65855627057306

_space_group_name_H-M_alt    "P 1"
_space_group_IT_number       1

loop_
  _space_group_symop_operation_xyz
  'x, y, z'

loop_
  _atom_site_type_symbol
  _atom_site_label
  _atom_site_symmetry_multiplicity
  _atom_site_fract_x
  _atom_site_fract_y
  _atom_site_fract_z
  _atom_site_occupancy
  H   H1        1.0  0.3885894936993228  0.8647070892961146  0.6940221276219277  1.0000
  H   H2        1.0  0.6114105058588031  0.13529291113713132  0.305977872353719  1.0000
  H   H3        1.0  0.5222370628542796  0.9953989623662781  0.695749106051445  1.0000
  H   H4        1.0  0.47776293795085967  0.004601038065832609  0.30425089361822116  1.0000
  H   H5        1.0  0.54334843977521  0.8831259632609098  0.9082698114723785  1.0000
  H   H6        1.0  0.45665155978291605  0.11687403717233599  0.09173018850326808  1.0000
  H   H7        1.0  0.4061159376602785  0.7551599273223888  0.9072115368726142  1.0000
  H   H8        1.0  0.5938840618978475  0.2448400731108569  0.09278846310303236  1.0000
  H   H9        1.0  0.31222745842779626  0.11130815656720344  0.9021784420342803  1.0000
  H   H10       1.0  0.6877725411303297  0.8886918438660425  0.0978215579413664  1.0000
  H   H11       1.0  0.2455284774236944  0.9892824265477742  0.03847305071141733  1.0000
  H   H12       1.0  0.754471523381445  0.010717573884336508  0.9615269489582489  1.0000
  H   H13       1.0  0.17444553530246334  0.9830535530756978  0.9040283100223651  1.0000
  H   H14       1.0  0.8255544642556626  0.016946447357548147  0.09597168995328154  1.0000
  H   H15       1.0  0.22938711331864725  0.4419657147086858  0.7509229549004377  1.0000
  H   H16       1.0  0.770612887714514  0.5580342845669949  0.2490770447817039  1.0000
  H   H17       1.0  0.17458096853925417  0.6954196377617445  0.8262877631016274  1.0000
  H   H18       1.0  0.825419031250749  0.3045803615063829  0.17371223779364692  1.0000
  H   H19       1.0  0.018691002847284192  0.711535453415949  0.9792953622710303  1.0000
  H   H20       1.0  0.9813089967108418  0.2884645470172967  0.02070463770461624  1.0000
  H   H21       1.0  0.9688682088912688  0.808718703201032  0.8460334365971918  1.0000
  H   H22       1.0  0.031131790666857007  0.19128129723221377  0.1539665633784548  1.0000
  H   H23       1.0  0.7137764947626319  0.648855492947971  0.9453738531703565  1.0000
  H   H24       1.0  0.2862235060425074  0.35114450748414  0.0546261464993096  1.0000
  H   H25       1.0  0.132782414760879  0.21007610356088174  0.7091210034851122  1.0000
  H   H26       1.0  0.867217584797247  0.7899238968723641  0.29087899649053445  1.0000
  H   H27       1.0  0.615071897292319  0.41813959010032753  0.9017568902483202  1.0000
  H   H28       1.0  0.38492810374084224  0.5818604091753529  0.09824310943382142  1.0000
  H   H29       1.0  0.825510456773939  0.1958519326594518  0.7838461838808657  1.0000
  H   H30       1.0  0.1744895430160641  0.8041480666086757  0.2161538170144086  1.0000
  C   C1        1.0  0.9278961637993571  0.552345514680088  0.5357084373550166  1.0000
  C   C2        1.0  0.07210383576262405  0.4476544857444699  0.4642915635277823  1.0000
  C   C3        1.0  0.7653078123002002  0.5123315219142937  0.5715206634718658  1.0000
  C   C4        1.0  0.23469218873296102  0.48766847736138674  0.42847933621027606  1.0000
  C   C5        1.0  0.10818846890955404  0.7347174162236718  0.5368743388952051  1.0000
  C   C6        1.0  0.8918115306485719  0.26528258420957385  0.46312566108044156  1.0000
  C   C7        1.0  0.9475947897572543  0.6949083704176763  0.5735674631440367  1.0000
  C   C8        1.0  0.052405211047884995  0.3050916300144348  0.42643253652562946  1.0000
  C   C9        1.0  0.7982491290664198  0.8033209357301145  0.6498892516836289  1.0000
  C   C10       1.0  0.20175087071972803  0.19667906354670078  0.35011074830449324  1.0000
  C   C11       1.0  0.7472058703648189  0.36910191148212634  0.5374872310539781  1.0000
  C   C12       1.0  0.25279413066834244  0.6308980877935542  0.4625127686281636  1.0000
  C   C13       1.0  0.13570352564761645  0.8781391245005009  0.5696883414960174  1.0000
  C   C14       1.0  0.8642964739105095  0.12186087593274496  0.43031165847962916  1.0000
  C   C15       1.0  0.5888575822142977  0.3170305112761212  0.5785210790089776  1.0000
  C   C16       1.0  0.4111424173438282  0.6829694891571246  0.4214789209666687  1.0000
  C   C17       1.0  0.4903207042645631  0.8818362988867384  0.7298378509673533  1.0000
  C   C18       1.0  0.5096792967685981  0.11816370038894206  0.2701621487147885  1.0000
  C   C19       1.0  0.6140756241023155  0.6224218751416164  0.6435549203804833  1.0000
  C   C20       1.0  0.38592437545581043  0.3775781252916294  0.3564450795951631  1.0000
  C   C21       1.0  0.43672784111315993  0.870355090977141  0.8755974142465538  1.0000
  C   C22       1.0  0.563272158672988  0.12964490829967437  0.12440258574156836  1.0000
  C   C23       1.0  0.2837963253113908  0.9953262627458254  0.9334637120550028  1.0000
  C   C24       1.0  0.7162036754937483  0.004673737686285459  0.06653628761466338  1.0000
  C   C25       1.0  0.9787971641792637  0.5622198078437849  0.8510392573001996  1.0000
  C   C26       1.0  0.021202835378862354  0.43778019258946094  0.14896074267544696  1.0000
  C   C27       1.0  0.09457364942874626  0.4366523402369881  0.7849030569038516  1.0000
  C   C28       1.0  0.9054263503574016  0.5633476590398273  0.2150969430842703  1.0000
  C   C29       1.0  0.03892485124507585  0.7019288659757776  0.8764420927999044  1.0000
  C   C30       1.0  0.9610751485410719  0.29807113330103774  0.12355790718821781  1.0000
  C   C31       1.0  0.805726360116223  0.5525934236409871  0.89323697246136  1.0000
  C   C32       1.0  0.19427363944190296  0.4474065767922588  0.10676302751428648  1.0000
  C   C33       1.0  0.04024741751515067  0.30551182658148335  0.7614176692470319  1.0000
  C   C34       1.0  0.9597525832899886  0.6944881738506276  0.23858233042263427  1.0000
  C   C35       1.0  0.7503479116847805  0.42219034279383216  0.8694817064041688  1.0000
  C   C36       1.0  0.24965208810136724  0.5778096564829833  0.1305182935839532  1.0000
  C   C37       1.0  0.8677651624680663  0.2978250880706341  0.8033547690620574  1.0000
  C   C38       1.0  0.13223483709005965  0.7021749123626116  0.1966452309135892  1.0000
  N   N1        1.0  0.6397960450414162  0.7661587733907668  0.6680648877103964  1.0000
  N   N2        1.0  0.3602039545167097  0.233841227042479  0.33193511226525024  1.0000
  N   N3        1.0  0.18008015212196066  0.9895685501214713  0.5867466791362203  1.0000
  N   N4        1.0  0.8199198474361653  0.010431450311774653  0.41325332083942623  1.0000
  N   N5        1.0  0.4710988953183827  0.256006998246643  0.6070412166455685  1.0000
  N   N6        1.0  0.5289011054867565  0.7439930021854679  0.39295878302409765  1.0000
  O   O1        1.0  0.8123124206114191  0.9220325754869932  0.6941077621786642  1.0000
  O   O2        1.0  0.18768757917472878  0.07796742378982223  0.30589223780945796  1.0000
  O   O3        1.0  0.4710486805240701  0.5895688656748629  0.6786599862212727  1.0000
  O   O4        1.0  0.5289513205090909  0.4104311336008176  0.321340013460869  1.0000
