data_image0
_chemical_formula_structural       H64C72N8O8
_chemical_formula_sum              "H64 C72 N8 O8"
_cell_length_a       8.097646855864472
_cell_length_b       11.215880260943873
_cell_length_c       16.363607721682243
_cell_angle_alpha    90.0
_cell_angle_beta     96.73359199945371
_cell_angle_gamma    90.0

_space_group_name_H-M_alt    "P 1"
_space_group_IT_number       1

loop_
  _space_group_symop_operation_xyz
  'x, y, z'

loop_
  _atom_site_type_symbol
  _atom_site_label
  _atom_site_symmetry_multiplicity
  _atom_site_fract_x
  _atom_site_fract_y
  _atom_site_fract_z
  _atom_site_occupancy
  H   H1        1.0  0.44198304986883424  0.8412367839602791  0.5518365504310045  1.0000
  H   H2        1.0  0.05801694942858564  0.3412367840023567  0.9481634495211744  1.0000
  H   H3        1.0  0.5580169504300788  0.1587632159555658  0.44816344949871756  1.0000
  H   H4        1.0  0.9419830496269622  0.6587632168050813  0.05183655034553976  1.0000
  H   H5        1.0  0.24410857400250016  0.5740244154013635  0.4197150392456591  1.0000
  H   H6        1.0  0.25589142613766086  0.07402441544344111  0.08028496041314066  1.0000
  H   H7        1.0  0.755891426296413  0.42597558451448136  0.580284960684063  1.0000
  H   H8        1.0  0.7441085741612522  0.9259755844724038  0.9197150395165814  1.0000
  H   H9        1.0  0.8556520908582976  0.792463502035641  0.5358733497073782  1.0000
  H   H10       1.0  0.6443479083374113  0.2924635020777185  0.9641266498181357  1.0000
  H   H11       1.0  0.14434790944061554  0.20753649788020398  0.46412665022234384  1.0000
  H   H12       1.0  0.3556520907181365  0.7075364978381264  0.03587335004857845  1.0000
  H   H13       1.0  0.11630036478066665  0.7141544590032854  0.4895647088440952  1.0000
  H   H14       1.0  0.38369963537808544  0.21415445904536298  0.010435291426827099  1.0000
  H   H15       1.0  0.8836996355182465  0.2858455418041524  0.5104352910856269  1.0000
  H   H16       1.0  0.6163003649394188  0.7858455417620749  0.9895647091150176  1.0000
  H   H17       1.0  0.8280912845111985  0.4729828989413234  0.32418367036294266  1.0000
  H   H18       1.0  0.6719087143024774  0.9729828988992458  0.17581632941830672  1.0000
  H   H19       1.0  0.17190871454434953  0.5270171009745216  0.6758163295037715  1.0000
  H   H20       1.0  0.3280912847530705  0.027017101016599054  0.8241836704484073  1.0000
  H   H21       1.0  0.5706380286353872  0.5471171934108711  0.3738890628915011  1.0000
  H   H22       1.0  0.9293619714216541  0.04711719345294859  0.12611093695275627  1.0000
  H   H23       1.0  0.42936197166352613  0.45288280650497387  0.6261109370382211  1.0000
  H   H24       1.0  0.07063802887725912  0.9528828064628962  0.8738890629769658  1.0000
  H   H25       1.0  0.9717506969959009  0.551868393384498  0.22885959787574237  1.0000
  H   H26       1.0  0.5282493030797313  0.05186839342657558  0.2711404025806376  1.0000
  H   H27       1.0  0.028249303321603317  0.44813160653134687  0.7711404026661023  1.0000
  H   H28       1.0  0.47175069597581665  0.9481316064892693  0.7288595972860765  1.0000
  H   H29       1.0  0.028901584996931202  0.42059711768026753  0.11376985632539359  1.0000
  H   H30       1.0  0.4710984151618209  0.92059711763819  0.3862301439455288  1.0000
  H   H31       1.0  0.9710984153019819  0.5794028831271704  0.8862301436043285  1.0000
  H   H32       1.0  0.5289015851370922  0.07940288227765493  0.6137698559841933  1.0000
  H   H33       1.0  0.2526614316579397  0.2685527172119186  0.13380658024269024  1.0000
  H   H34       1.0  0.24733856848222138  0.7685527171698411  0.3661934194161095  1.0000
  H   H35       1.0  0.7473385686409735  0.7314472827039262  0.8661934196870318  1.0000
  H   H36       1.0  0.7526614305733265  0.23144728274600385  0.6338065804506047  1.0000
  H   H37       1.0  0.4301103852465626  0.2550577247121269  0.2687057479679633  1.0000
  H   H38       1.0  0.06988961491218948  0.7550577246700493  0.231294252302959  1.0000
  H   H39       1.0  0.5698896150709416  0.744942275203718  0.7312942525738814  1.0000
  H   H40       1.0  0.9301103841433584  0.2449422752457956  0.7687057475637551  1.0000
  H   H41       1.0  0.37513166234396716  0.3891814167453195  0.3840572020597282  1.0000
  H   H42       1.0  0.12486833781478492  0.8891814167032419  0.11594279821119408  1.0000
  H   H43       1.0  0.624868337954946  0.6108185840621184  0.615942797869994  1.0000
  H   H44       1.0  0.8751316624841282  0.110818583212603  0.884057201718528  1.0000
  H   H45       1.0  0.7935563511629549  0.7952972947706327  0.14915670832633335  1.0000
  H   H46       1.0  0.706443647650721  0.2952972948127102  0.3508432914549161  1.0000
  H   H47       1.0  0.20644364789259304  0.20470270603680524  0.8508432915403809  1.0000
  H   H48       1.0  0.29355635140482694  0.7047027059947277  0.6491567084117981  1.0000
  H   H49       1.0  0.5468131891550619  0.7568970782936644  0.2257850501209671  1.0000
  H   H50       1.0  0.9531868109205702  0.25689707833574194  0.2742149503354128  1.0000
  H   H51       1.0  0.45318681114385123  0.24310292162218053  0.7742149498087549  1.0000
  H   H52       1.0  0.04681318939693399  0.7431029215801029  0.7257850502064318  1.0000
  H   H53       1.0  0.4010324189484463  0.5595177091763893  0.20569569247817795  1.0000
  H   H54       1.0  0.0989675799483495  0.059517709218466885  0.2943043071176139  1.0000
  H   H55       1.0  0.5989675801071016  0.4404822907394556  0.7943043073885362  1.0000
  H   H56       1.0  0.9010324191071983  0.940482290697378  0.7056956927491003  1.0000
  H   H57       1.0  0.5086970135174922  0.40927432561710464  0.11090933406460056  1.0000
  H   H58       1.0  0.9913029865395487  0.9092743255750272  0.38909066577965673  1.0000
  H   H59       1.0  0.49130298678142087  0.5907256742987402  0.8890906658651215  1.0000
  H   H60       1.0  0.008697013759364347  0.09072567434081776  0.6109093341500652  1.0000
  H   H61       1.0  0.7570694166058114  0.46226952672225446  0.04012064928404466  1.0000
  H   H62       1.0  0.7429305834698209  0.962269526680177  0.45987935117233525  1.0000
  H   H63       1.0  0.24293058371169285  0.5377304731935905  0.9598793512578  1.0000
  H   H64       1.0  0.25706941682909235  0.03773047323566801  0.5401206487573867  1.0000
  C   C1        1.0  0.6948069009338987  0.6771203154197087  0.4567449132242833  1.0000
  C   C2        1.0  0.8051930991231423  0.17712031546178622  0.04325508661997406  1.0000
  C   C3        1.0  0.3051930993650144  0.32287968449613624  0.5432550867054388  1.0000
  C   C4        1.0  0.19480690117577087  0.8228796844540588  0.956744913309748  1.0000
  C   C5        1.0  0.8504222404124817  0.7236939527844892  0.4886970702840066  1.0000
  C   C6        1.0  0.6495777596445594  0.22369395282656673  0.011302929560250707  1.0000
  C   C7        1.0  0.14957775988643143  0.2763060471313557  0.5113029296457154  1.0000
  C   C8        1.0  0.35042224065435373  0.7763060470892781  0.9886970703694713  1.0000
  C   C9        1.0  0.9956305217674922  0.6806371503967505  0.4629510319282651  1.0000
  C   C10       1.0  0.5043694783081397  0.180637150438828  0.03704896852811485  1.0000
  C   C11       1.0  0.004369478531420852  0.31936284951909444  0.537048968001457  1.0000
  C   C12       1.0  0.49563052200936436  0.8193628494770169  0.9629510320137298  1.0000
  C   C13       1.0  0.9907897844708567  0.5902326840143081  0.40247359109971803  1.0000
  C   C14       1.0  0.5092102155861844  0.09023268405638558  0.09752640874453936  1.0000
  C   C15       1.0  0.009210215828056433  0.4097673159015369  0.5975264088300041  1.0000
  C   C16       1.0  0.4907897847127288  0.9097673158594594  0.9024735911851827  1.0000
  C   C17       1.0  0.8344663037608399  0.5437524695441752  0.3699149665348212  1.0000
  C   C18       1.0  0.6655336962962014  0.043752469586252805  0.13008503330943616  1.0000
  C   C19       1.0  0.16553369653807343  0.4562475303716696  0.6300850333949009  1.0000
  C   C20       1.0  0.3344663040027118  0.9562475303295921  0.869914966620286  1.0000
  C   C21       1.0  0.6901502199421498  0.5855730363732764  0.3978700431447679  1.0000
  C   C22       1.0  0.8098497801148913  0.08557303641535398  0.10212995669948945  1.0000
  C   C23       1.0  0.3098497803567634  0.41442696354256847  0.6021299567849542  1.0000
  C   C24       1.0  0.1901502201840218  0.9144269635004909  0.8978700432302327  1.0000
  C   C25       1.0  0.5410931397752665  0.7183204556894937  0.4873333620254394  1.0000
  C   C26       1.0  0.9589068602817745  0.2183204557315712  0.012666637818817916  1.0000
  C   C27       1.0  0.4589068605236466  0.2816795442263513  0.5126666379042826  1.0000
  C   C28       1.0  0.04109314001713864  0.7816795441842738  0.9873333621109042  1.0000
  C   C29       1.0  0.16638480030864947  0.4760027002598113  0.3152231564552468  1.0000
  C   C30       1.0  0.33361519985010263  0.9760027002177337  0.18477684381567555  1.0000
  C   C31       1.0  0.8336151999902637  0.5239972996560337  0.6847768434744752  1.0000
  C   C32       1.0  0.6663848004488107  0.02399729969811122  0.8152231561140465  1.0000
  C   C33       1.0  0.06967889576922415  0.48504029139324845  0.2382717329130859  1.0000
  C   C34       1.0  0.430321104389528  0.9850402913511709  0.26172826735783644  1.0000
  C   C35       1.0  0.930321104529689  0.5149597085225964  0.7617282670166361  1.0000
  C   C36       1.0  0.5696788959279763  0.01495970856467399  0.7382717331840082  1.0000
  C   C37       1.0  0.10249162165610343  0.41135930775456847  0.1735689781578733  1.0000
  C   C38       1.0  0.39750837850264864  0.911359307712491  0.326431022113049  1.0000
  C   C39       1.0  0.8975083786614008  0.5886406921612765  0.8264310223839714  1.0000
  C   C40       1.0  0.6024916217962645  0.08864069220335404  0.6735689778166731  1.0000
  C   C41       1.0  0.23062175999983375  0.3272650362345348  0.184200589742925  1.0000
  C   C42       1.0  0.26937824014032735  0.8272650361924573  0.31579940991587474  1.0000
  C   C43       1.0  0.7693782402990794  0.6727349636813101  0.8157994101867971  1.0000
  C   C44       1.0  0.7306217601585859  0.1727349637233877  0.6842005900138474  1.0000
  C   C45       1.0  0.3295148719059627  0.3200778571523272  0.25996258686430435  1.0000
  C   C46       1.0  0.17048512825278936  0.8200778571102497  0.240037413406618  1.0000
  C   C47       1.0  0.6704851283929505  0.6799221427635177  0.7400374130654177  1.0000
  C   C48       1.0  0.8295148720647149  0.1799221428055952  0.7599625871352267  1.0000
  C   C49       1.0  0.29893689030476006  0.3942335667934363  0.3247931921829222  1.0000
  C   C50       1.0  0.20106310859203574  0.8942335667513587  0.1752068074128696  1.0000
  C   C51       1.0  0.7010631087507879  0.6057664331224086  0.6752068076837919  1.0000
  C   C52       1.0  0.7989368904635121  0.10576643316448617  0.8247931924538445  1.0000
  C   C53       1.0  0.7271787963207066  0.7104959882417096  0.1438269376082951  1.0000
  C   C54       1.0  0.7728212037549256  0.21049598828378704  0.3561730628480848  1.0000
  C   C55       1.0  0.27282120399679766  0.2895040116741354  0.8561730629335496  1.0000
  C   C56       1.0  0.2271787953006223  0.789504011632058  0.6438269370186294  1.0000
  C   C57       1.0  0.590001020227683  0.689140704980167  0.18559961609930178  1.0000
  C   C58       1.0  0.9099989798293581  0.18914070502224453  0.31440038374495555  1.0000
  C   C59       1.0  0.4099989788278649  0.31085929493567793  0.8144003837674123  1.0000
  C   C60       1.0  0.09000102046955506  0.8108592948936004  0.6855996161847665  1.0000
  C   C61       1.0  0.5092429007499409  0.5793677606052786  0.17425274470472132  1.0000
  C   C62       1.0  0.9907570993071001  0.07936776064735618  0.32574725513953606  1.0000
  C   C63       1.0  0.4907570995489722  0.42063223931056626  0.8257472552250008  1.0000
  C   C64       1.0  0.009242899748447735  0.9206322392684888  0.6742527447271781  1.0000
  C   C65       1.0  0.5681135169721309  0.49579566655716345  0.12150079391452269  1.0000
  C   C66       1.0  0.9318864830849104  0.995795666515086  0.3784992059297347  1.0000
  C   C67       1.0  0.4318864833267824  0.5042043333586815  0.8784992060151995  1.0000
  C   C68       1.0  0.06811351721400283  0.0042043334007590095  0.6215007939999875  1.0000
  C   C69       1.0  0.7062038311316541  0.5244499596240327  0.0820430819593728  1.0000
  C   C70       1.0  0.793796168943978  0.024449959666110268  0.41795691849700717  1.0000
  C   C71       1.0  0.29379616794248475  0.4755500402918122  0.9179569185194639  1.0000
  C   C72       1.0  0.2062038313549352  0.9755500402497347  0.582043081432715  1.0000
  N   N1        1.0  0.14006939705580712  0.549027141582714  0.38142234634263694  1.0000
  N   N2        1.0  0.3599306018595797  0.04902714162479161  0.11857765386527744  1.0000
  N   N3        1.0  0.8599306020183317  0.45097285833313083  0.6185776541361998  1.0000
  N   N4        1.0  0.6400693971959681  0.9509728582910533  0.8814223460014367  1.0000
  N   N5        1.0  0.7848202347946367  0.6296889682919683  0.09346277128282979  1.0000
  N   N6        1.0  0.7151797652624042  0.12968896833404586  0.4065372285614276  1.0000
  N   N7        1.0  0.2151797642609111  0.3703110316238766  0.9065372285838843  1.0000
  N   N8        1.0  0.28482023503650883  0.8703110315817991  0.5934627713682946  1.0000
  O   O1        1.0  0.5544278345742079  0.8226580709968737  0.527013240095046  1.0000
  O   O2        1.0  0.9455721658834573  0.32265807103895133  0.9729867601055984  1.0000
  O   O3        1.0  0.4455721657247052  0.17734192891897116  0.4729867598346761  1.0000
  O   O4        1.0  0.05442783441545588  0.6773419288768937  0.027013239824123614  1.0000
  O   O5        1.0  0.4089440632857314  0.6603177020166175  0.4789745903188753  1.0000
  O   O6        1.0  0.09105593685442968  0.16031770205869514  0.021025409339924438  1.0000
  O   O7        1.0  0.5910559370131817  0.33968229789922727  0.5210254096108468  1.0000
  O   O8        1.0  0.9089440634444834  0.8396822978571498  0.9789745905897976  1.0000
