data_image0
_chemical_formula_structural       H44B4C66N6O8F4
_chemical_formula_sum              "H44 B4 C66 N6 O8 F4"
_cell_length_a       8.301904917624178
_cell_length_b       12.969611708888078
_cell_length_c       13.776318474316385
_cell_angle_alpha    68.20045601336408
_cell_angle_beta     89.51161972080533
_cell_angle_gamma    75.17942503160873

_space_group_name_H-M_alt    "P 1"
_space_group_IT_number       1

loop_
  _space_group_symop_operation_xyz
  'x, y, z'

loop_
  _atom_site_type_symbol
  _atom_site_label
  _atom_site_symmetry_multiplicity
  _atom_site_fract_x
  _atom_site_fract_y
  _atom_site_fract_z
  _atom_site_occupancy
  H   H1        1.0  0.5116983545446729  0.055403337920333  0.11198734216930081  1.0000
  H   H2        1.0  0.4883016460344278  0.9445966622683505  0.888012657349289  1.0000
  H   H3        1.0  0.6983172014935  0.9493809168122254  0.016079097889333316  1.0000
  H   H4        1.0  0.3016827990856007  0.05061908337645825  0.9839209016292565  1.0000
  H   H5        1.0  0.8401414657189468  0.7386737287689326  0.10889157802758083  1.0000
  H   H6        1.0  0.15985853377873277  0.2613262710947393  0.8911084222792857  1.0000
  H   H7        1.0  0.7970257351439188  0.6384500818024594  0.29116665672387887  1.0000
  H   H8        1.0  0.20297426435376073  0.36154991806121245  0.7088333435829877  1.0000
  H   H9        1.0  0.47898681645715274  0.7110118303488904  0.7771820262288386  1.0000
  H   H10       1.0  0.5210131829185572  0.28898816983683573  0.22281797329262487  1.0000
  H   H11       1.0  0.24981502638159322  0.8150785967665376  0.8500771186863203  1.0000
  H   H12       1.0  0.7501849741975076  0.18492140342214597  0.14992288083226962  1.0000
  H   H13       1.0  0.05651332080254515  0.001593788221321929  0.7327534044047824  1.0000
  H   H14       1.0  0.943486679898525  0.9984062116453074  0.26724659589921046  1.0000
  H   H15       1.0  0.0913652884469275  0.08221405183899502  0.5414279642339209  1.0000
  H   H16       1.0  0.9086347122541427  0.9177859480276342  0.4585720360700721  1.0000
  H   H17       1.0  0.13497427531420308  0.49086536681038495  0.8841620871263419  1.0000
  H   H18       1.0  0.865025725386867  0.5091346330562444  0.11583791317765094  1.0000
  H   H19       1.0  0.09210993435361607  0.6555088506827778  0.9427138914347178  1.0000
  H   H20       1.0  0.9078900651440636  0.3444911491808942  0.05728610887214877  1.0000
  H   H21       1.0  0.862721830418146  0.8345816503964462  0.8533024967039017  1.0000
  H   H22       1.0  0.13727817016095475  0.16541834979223755  0.1466975028146881  1.0000
  H   H23       1.0  0.6733572638911937  0.8470470048250679  0.7106497432617201  1.0000
  H   H24       1.0  0.32664273668790705  0.15295299536361576  0.2893502562568697  1.0000
  H   H25       1.0  0.5261507426856531  0.5859462544949516  0.3338002303219342  1.0000
  H   H26       1.0  0.4738492578934476  0.41405374569373193  0.6661997691966557  1.0000
  H   H27       1.0  0.6086197828553843  0.42128641626015734  0.2784726895572086  1.0000
  H   H28       1.0  0.39138021784568566  0.578713583606472  0.7215273107467844  1.0000
  H   H29       1.0  0.8550463006982736  0.2547168124551196  0.3741015523053841  1.0000
  H   H30       1.0  0.14495370000279664  0.7452831874115097  0.6258984479986087  1.0000
  H   H31       1.0  0.005705578536618623  0.25130080114222036  0.5323785416321274  1.0000
  H   H32       1.0  0.9942944209610608  0.7486991987214514  0.46762145867473914  1.0000
  H   H33       1.0  0.14741924460096334  0.9413570056612575  0.1582327802737557  1.0000
  H   H34       1.0  0.852580754896716  0.058642994202414575  0.8417672200331108  1.0000
  H   H35       1.0  0.30516711779838734  0.8088652113422155  0.18221402181235444  1.0000
  H   H36       1.0  0.6948328816992922  0.19113478852145652  0.8177859784945121  1.0000
  H   H37       1.0  0.10300113108025744  0.8055617690657849  0.22421412586738385  1.0000
  H   H38       1.0  0.8969988696208129  0.19443823080084444  0.7757858744366091  1.0000
  H   H39       1.0  0.7031108632182764  0.44202156474214144  0.8833344347802708  1.0000
  H   H40       1.0  0.2968891373608244  0.5579784354465421  0.11666556473831904  1.0000
  H   H41       1.0  0.7174255310886706  0.6037998455587876  0.9361584263730754  1.0000
  H   H42       1.0  0.28257446828703947  0.39620015462693836  0.06384157314838813  1.0000
  H   H43       1.0  0.5140759312870589  0.661735191156899  0.05262999954247229  1.0000
  H   H44       1.0  0.48592406929204174  0.3382648090317845  0.9473699999761176  1.0000
  B   B1        1.0  0.3746249097639639  0.9095390571301208  0.3965844373747871  1.0000
  B   B2        1.0  0.6253750897337157  0.09046094273355094  0.6034155629320794  1.0000
  B   B3        1.0  0.8414931425801621  0.4748320506144415  0.6656432673625107  1.0000
  B   B4        1.0  0.15850685691751742  0.5251679492492303  0.33435673294435597  1.0000
  C   C1        1.0  0.541165638768974  0.9053114614262728  0.25304026164980764  1.0000
  C   C2        1.0  0.4588343618101268  0.09468853876241072  0.7469597378687821  1.0000
  C   C3        1.0  0.5715133230810202  0.9631175123349401  0.1490959358313548  1.0000
  C   C4        1.0  0.42848667762005  0.036882487531689157  0.850904064472638  1.0000
  C   C5        1.0  0.6759726765319384  0.9037225195479494  0.09685804624712757  1.0000
  C   C6        1.0  0.32402732284377184  0.09627748063777676  0.903141953274336  1.0000
  C   C7        1.0  0.7546283187465678  0.7854233490136865  0.14841303242227788  1.0000
  C   C8        1.0  0.24537168195450218  0.21457665085294286  0.851586967881715  1.0000
  C   C9        1.0  0.7285354029135734  0.7282402801328721  0.25164141188738165  1.0000
  C   C10       1.0  0.2714645965841061  0.27175971973079965  0.748358588419485  1.0000
  C   C11       1.0  0.6204965877286924  0.7852136547959534  0.3071830686721037  1.0000
  C   C12       1.0  0.37950341176898716  0.21478634506771835  0.6928169316347629  1.0000
  C   C13       1.0  0.6084147959776609  0.7318046724149228  0.4191091638938485  1.0000
  C   C14       1.0  0.39158520352001847  0.26819532744874924  0.5808908364130181  1.0000
  C   C15       1.0  0.545635826481199  0.7760691643102902  0.572106059665618  1.0000
  C   C16       1.0  0.45436417301648047  0.22393083555338156  0.4278939406412485  1.0000
  C   C17       1.0  0.4200974901122862  0.8389358904855293  0.6183669334205042  1.0000
  C   C18       1.0  0.5799025093853932  0.16106410937814256  0.3816330668863625  1.0000
  C   C19       1.0  0.3968638651172764  0.7938034143042868  0.726114765864695  1.0000
  C   C20       1.0  0.6031361342584337  0.2061965858814394  0.2738852336567684  1.0000
  C   C21       1.0  0.2684604735951706  0.8515758666811789  0.7672356522498582  1.0000
  C   C22       1.0  0.7315395257805394  0.14842413350454742  0.23276434727160528  1.0000
  C   C23       1.0  0.1595137379060733  0.9568148218658871  0.7011548070546506  1.0000
  C   C24       1.0  0.8404862615916062  0.043185177997784825  0.2988451932522159  1.0000
  C   C25       1.0  0.17859106331686136  0.0030100614315704817  0.5945951671315128  1.0000
  C   C26       1.0  0.8214089373842088  0.9969899384350589  0.40540483317248016  1.0000
  C   C27       1.0  0.3068726464525321  0.94415607122809  0.5523736331787495  1.0000
  C   C28       1.0  0.6931273542485382  0.05584392863853928  0.44762636712524334  1.0000
  C   C29       1.0  0.925421338835608  0.5742964748386795  0.7668710712288178  1.0000
  C   C30       1.0  0.07457866054010194  0.4257035253470467  0.23312892829264564  1.0000
  C   C31       1.0  0.03236383852711469  0.5685670287664538  0.8479945748824957  1.0000
  C   C32       1.0  0.967636160970565  0.4314329710972181  0.15200542542437076  1.0000
  C   C33       1.0  0.008214409502088085  0.6607940819360305  0.8796306106846401  1.0000
  C   C34       1.0  0.9917855899955915  0.3392059179276414  0.12036938962222647  1.0000
  C   C35       1.0  0.8777649037776412  0.7614856405079492  0.8298645813949808  1.0000
  C   C36       1.0  0.12223509692342889  0.23851435935868015  0.17013541890901218  1.0000
  C   C37       1.0  0.7710542997439164  0.7679005670654867  0.7501456292294738  1.0000
  C   C38       1.0  0.22894570095715375  0.2320994328011426  0.2498543710745192  1.0000
  C   C39       1.0  0.7895652994083214  0.6744067157803856  0.7175087236919515  1.0000
  C   C40       1.0  0.21043469996738853  0.32559328440534047  0.28249127582951206  1.0000
  C   C41       1.0  0.689040118155658  0.6840740030862706  0.6279473365622705  1.0000
  C   C42       1.0  0.3109598813420214  0.31592599677740113  0.3720526637445961  1.0000
  C   C43       1.0  0.6884830004318796  0.6160676066420631  0.488011352586342  1.0000
  C   C44       1.0  0.31151700026919066  0.3839323932245663  0.511988647717651  1.0000
  C   C45       1.0  0.7227311942865635  0.5156382840048648  0.4607932617321502  1.0000
  C   C46       1.0  0.2772688064145068  0.48436171586176435  0.5392067385718428  1.0000
  C   C47       1.0  0.6326604232497244  0.5133604311377635  0.37581730397638247  1.0000
  C   C48       1.0  0.3673395762479552  0.48663956872590824  0.6241826963304842  1.0000
  C   C49       1.0  0.6785734260636612  0.4202660841267668  0.3454128365551294  1.0000
  C   C50       1.0  0.32142657451543943  0.5797339160619168  0.6545871629634605  1.0000
  C   C51       1.0  0.8167586346758097  0.3268896410558869  0.3994612503900003  1.0000
  C   C52       1.0  0.18324136482186984  0.6731103588077848  0.6005387499168663  1.0000
  C   C53       1.0  0.9024881327619105  0.32473125236128586  0.48656819779298993  1.0000
  C   C54       1.0  0.09751186793915964  0.6752687475053434  0.513431802511003  1.0000
  C   C55       1.0  0.8530513904694031  0.4167158041989238  0.5198757084963018  1.0000
  C   C56       1.0  0.14694861023166703  0.5832841956677053  0.4801242918076911  1.0000
  C   C57       1.0  0.11529069559695097  0.8548515349260338  0.061884865459940534  1.0000
  C   C58       1.0  0.8847093051041193  0.14514846494059536  0.9381151348440525  1.0000
  C   C59       1.0  0.17095853949765427  0.8526258671414929  0.16199243590833554  1.0000
  C   C60       1.0  0.8290414600000253  0.1473741327221788  0.8380075643985312  1.0000
  C   C61       1.0  0.614597432044406  0.4673687843991581  0.9345909546131638  1.0000
  C   C62       1.0  0.38540256733130396  0.5326312157865681  0.0654090449082998  1.0000
  C   C63       1.0  0.6219588360911803  0.5584090569415519  0.9640552374513394  1.0000
  C   C64       1.0  0.3780411634064994  0.4415909429221199  0.03594476285552725  1.0000
  C   C65       1.0  0.5075710858970414  0.5909766396874201  0.0294135533912885  1.0000
  C   C66       1.0  0.4924289136006382  0.40902336017625185  0.9705864469155782  1.0000
  N   N1        1.0  0.5202234904060278  0.8003881576621175  0.46777420428400635  1.0000
  N   N2        1.0  0.47977651029504254  0.1996118422045118  0.5322257960199865  1.0000
  N   N3        1.0  0.7361159322742497  0.5999052192997889  0.5880977237875943  1.0000
  N   N4        1.0  0.26388406842682055  0.40009478056684045  0.41190227651639866  1.0000
  N   N5        1.0  0.06900595271933699  0.8580271513773328  0.9809485117959882  1.0000
  N   N6        1.0  0.9309940467783426  0.14197284848633895  0.019051488510878525  1.0000
  O   O1        1.0  0.43946607973924606  0.9678389085513625  0.29924326449839705  1.0000
  O   O2        1.0  0.5605339209618241  0.032161091315266774  0.7007567358055959  1.0000
  O   O3        1.0  0.32162909596754846  0.9891507703365374  0.4483761891821019  1.0000
  O   O4        1.0  0.6783709046115524  0.010849229852146204  0.5516238103364879  1.0000
  O   O5        1.0  0.9585096126734238  0.4841821663967341  0.7369084674927467  1.0000
  O   O6        1.0  0.04149038790567679  0.5158178337919495  0.2630915320258432  1.0000
  O   O7        1.0  0.9344993586630035  0.41184802439575563  0.6063526155656436  1.0000
  O   O8        1.0  0.06550064071270652  0.5881519757899706  0.39364738395582  1.0000
  F   F1        1.0  0.243562894741302  0.8658402714885874  0.37831867485639153  1.0000
  F   F2        1.0  0.7564371059597682  0.13415972837804177  0.6216813254476015  1.0000
  F   F3        1.0  0.7234027808841907  0.41918083312646076  0.721684001821107  1.0000
  F   F4        1.0  0.27659721969491  0.5808191670622228  0.27831599769748283  1.0000
