data_image0
_chemical_formula_structural       H12C24N2F4S2Br2I2
_chemical_formula_sum              "H12 C24 N2 F4 S2 Br2 I2"
_cell_length_a       3.94502482471885
_cell_length_b       12.30673097955055
_cell_length_c       13.276048658084761
_cell_angle_alpha    94.910013305249
_cell_angle_beta     89.6779374633717
_cell_angle_gamma    94.37302570886084

_space_group_name_H-M_alt    "P 1"
_space_group_IT_number       1

loop_
  _space_group_symop_operation_xyz
  'x, y, z'

loop_
  _atom_site_type_symbol
  _atom_site_label
  _atom_site_symmetry_multiplicity
  _atom_site_fract_x
  _atom_site_fract_y
  _atom_site_fract_z
  _atom_site_occupancy
  H   H1        1.0  0.35447506625437275  0.06681276686443623  0.9312995739032606  1.0000
  H   H2        1.0  0.6455249331469514  0.9331872329806246  0.0687004256920831  1.0000
  H   H3        1.0  0.2503043037471177  0.17566558466361684  0.7747419273095033  1.0000
  H   H4        1.0  0.7496956956685935  0.8243344152501692  0.2252580730418414  1.0000
  H   H5        1.0  0.20615461711536465  0.4484777765813096  0.5508617738741952  1.0000
  H   H6        1.0  0.7938453822859594  0.5515222232637511  0.4491382257211483  1.0000
  H   H7        1.0  0.22816255072653469  0.30059370059996954  0.6638080693494158  1.0000
  H   H8        1.0  0.7718374512077391  0.6994062992374163  0.33619193024223787  1.0000
  H   H9        1.0  0.7920136406304301  0.5331526920772293  0.8762882354869556  1.0000
  H   H10       1.0  0.20798635877089397  0.46684730776783157  0.12371176410838815  1.0000
  H   H11       1.0  0.7421804644128224  0.6712377105950564  0.7534299068385514  1.0000
  H   H12       1.0  0.25781953753583864  0.32876228931105456  0.24657009350910342  1.0000
  C   C1        1.0  0.11729743388050236  0.9004277833012765  0.5293568924215305  1.0000
  C   C2        1.0  0.8827025655208217  0.0995722165437843  0.4706431071738131  1.0000
  C   C3        1.0  0.11447407695656005  0.924076508912219  0.4286672619650823  1.0000
  C   C4        1.0  0.8855259249777138  0.0759234909251667  0.5713327376265714  1.0000
  C   C5        1.0  0.9995679203272194  0.02101150791972389  0.39961965869620664  1.0000
  C   C6        1.0  0.00043208162144160717  0.9789884919863872  0.6003803416514482  1.0000
  C   C7        1.0  0.615609589166931  0.2164021718474031  0.0018783293827335295  1.0000
  C   C8        1.0  0.384390410234393  0.7835978279976578  0.99812167021261  1.0000
  C   C9        1.0  0.44086471673339733  0.1522026981434976  0.9261480213856185  1.0000
  C   C10       1.0  0.5591352828845957  0.8477973025165595  0.07385197821074475  1.0000
  C   C11       1.0  0.38800190514396987  0.2113280629501487  0.8416465827520522  1.0000
  C   C12       1.0  0.6119980942573542  0.788671936894912  0.15835341684329157  1.0000
  C   C13       1.0  0.5225733150892132  0.3190641522414285  0.852746564703363  1.0000
  C   C14       1.0  0.4774266868450605  0.6809358475959575  0.14725343488829057  1.0000
  C   C15       1.0  0.3331195287390014  0.46444435489910013  0.6240979893588485  1.0000
  C   C16       1.0  0.66688047067671  0.5355556450146859  0.3759020109924962  1.0000
  C   C17       1.0  0.3469378171935713  0.38119536296021295  0.6879651460935586  1.0000
  C   C18       1.0  0.6530621822221401  0.6188046369535731  0.3120348542577862  1.0000
  C   C19       1.0  0.5098653118232028  0.4029321963172388  0.7824968503382578  1.0000
  C   C20       1.0  0.49013468759250844  0.5970678035965473  0.21750315001308698  1.0000
  C   C21       1.0  0.6572517086652208  0.509977514768025  0.8053221200913795  1.0000
  C   C22       1.0  0.34274829075049057  0.49002248514576097  0.1946778802599651  1.0000
  C   C23       1.0  0.6309879161820043  0.5878688513242554  0.7368071806559318  1.0000
  C   C24       1.0  0.3690120857666567  0.41213114858185584  0.2631928196917231  1.0000
  N   N1        1.0  0.4701268143764671  0.566782389936268  0.6475029945782054  1.0000
  N   N2        1.0  0.5298731875721938  0.4332176099698432  0.35249700576944953  1.0000
  F   F1        1.0  0.2253762923526381  0.8508739648935307  0.3552165713818399  1.0000
  F   F2        1.0  0.7746237095816355  0.14912603494385526  0.6447834282098139  1.0000
  F   F3        1.0  0.005549607840649509  0.03769125447178451  0.2996136488434007  1.0000
  F   F4        1.0  0.9944503943102931  0.9623087461805977  0.7003863507492727  1.0000
  S   S1        1.0  0.7149626986667202  0.3476401704418709  0.97067732458568  1.0000
  S   S2        1.0  0.2850373007489911  0.6523598294719151  0.029322675765664642  1.0000
  Br  Br1       1.0  0.743797732514583  0.173803651003435  0.1274006455092948  1.0000
  Br  Br2       1.0  0.2562022669011283  0.826196348910351  0.8725993548420499  1.0000
  I   I1        1.0  0.2808880767609866  0.7505514348407585  0.5722835834895987  1.0000
  I   I2        1.0  0.7191119226403374  0.24944856500430243  0.4277164161057448  1.0000
