data_image0
_chemical_formula_structural       H80C82N8O12
_chemical_formula_sum              "H80 C82 N8 O12"
_cell_length_a       10.17682978009898
_cell_length_b       11.98703777951866
_cell_length_c       14.718695220792927
_cell_angle_alpha    90.0
_cell_angle_beta     106.29811658916508
_cell_angle_gamma    90.0

_space_group_name_H-M_alt    "P 1"
_space_group_IT_number       1

loop_
  _space_group_symop_operation_xyz
  'x, y, z'

loop_
  _atom_site_type_symbol
  _atom_site_label
  _atom_site_symmetry_multiplicity
  _atom_site_fract_x
  _atom_site_fract_y
  _atom_site_fract_z
  _atom_site_occupancy
  H   H1        1.0  0.2730310402367873  0.7608415096165838  0.8870093658738939  1.0000
  H   H2        1.0  0.7269689590447131  0.26084150959650626  0.11299063363610165  1.0000
  H   H3        1.0  0.35923368945590683  0.7918553352871097  0.008148659410793681  1.0000
  H   H4        1.0  0.6407663108404017  0.2918553352670322  0.991851340981413  1.0000
  H   H5        1.0  0.18914927668770687  0.8396817992179691  0.9567996452887408  1.0000
  H   H6        1.0  0.8108507236175194  0.33968179919789177  0.04320035442581389  1.0000
  H   H7        1.0  0.8633911805779985  0.5144708570566994  0.5929353337547855  1.0000
  H   H8        1.0  0.13660881870350183  0.014470857036621886  0.4070646657552101  1.0000
  H   H9        1.0  0.7531689780391576  0.6013353701375792  0.6370681143074173  1.0000
  H   H10       1.0  0.24683102225715098  0.10133537011750177  0.36293188608478943  1.0000
  H   H11       1.0  0.38168984522163324  0.3390075659011711  0.46368184414838215  1.0000
  H   H12       1.0  0.618310155083593  0.8390075659212486  0.5363181555661726  1.0000
  H   H13       1.0  0.45239264191738576  0.203726981170661  0.46168480466825906  1.0000
  H   H14       1.0  0.5476073583878406  0.7037269811907385  0.5383151950462957  1.0000
  H   H15       1.0  0.5066274119422709  0.14254419494026258  0.32368902531211097  1.0000
  H   H16       1.0  0.4933725883540377  0.6425441949603401  0.6763109750800957  1.0000
  H   H17       1.0  0.5222850842340014  0.17991091291001154  0.1608440025167414  1.0000
  H   H18       1.0  0.47771491607122474  0.6799109129300891  0.8391559971978133  1.0000
  H   H19       1.0  0.5002441552824517  0.37396660146173366  0.09861866217230739  1.0000
  H   H20       1.0  0.4997558450227746  0.8739666014818112  0.9013813375422474  1.0000
  H   H21       1.0  0.10483026201815673  0.7501948167181882  0.08054892412925722  1.0000
  H   H22       1.0  0.8951697382870696  0.2501948166981108  0.9194510755852975  1.0000
  H   H23       1.0  0.27307897492024674  0.7042186764793001  0.13838878243160221  1.0000
  H   H24       1.0  0.7269210253760618  0.20421867645922265  0.8616112179606045  1.0000
  H   H25       1.0  0.1362079534538667  0.6060694997068513  0.10900978542414312  1.0000
  H   H26       1.0  0.8637920468513595  0.10606949968677377  0.8909902142904116  1.0000
  H   H27       1.0  0.4693943239094842  0.5313016899706257  0.20147952497955574  1.0000
  H   H28       1.0  0.5306056763957422  0.03130168995054813  0.7985204747349991  1.0000
  H   H29       1.0  0.45445441240857565  0.49288376233325304  0.36473675216627477  1.0000
  H   H30       1.0  0.5455455878877329  0.9928837623533305  0.6352632482259319  1.0000
  H   H31       1.0  0.6642948536553404  0.10733197422621814  0.48667430252925037  1.0000
  H   H32       1.0  0.33570514664096823  0.6073319742462956  0.5133256978629562  1.0000
  H   H33       1.0  0.8718513534090226  0.014714347551433395  0.5861957224789562  1.0000
  H   H34       1.0  0.1281486458635599  0.5147143475715109  0.41380427770869127  1.0000
  H   H35       1.0  0.02566045559694793  0.11075376038844104  0.7255575856367663  1.0000
  H   H36       1.0  0.9743395436756347  0.6107537604085186  0.27444241455088114  1.0000
  H   H37       1.0  0.9690589302339099  0.30164088463773836  0.7693460255648269  1.0000
  H   H38       1.0  0.03094107007131655  0.8016408846578158  0.23065397414972796  1.0000
  H   H39       1.0  0.6401793426684149  0.4745391450854687  0.04833250130909957  1.0000
  H   H40       1.0  0.35982065660416773  0.9745391451055461  0.9516674988785481  1.0000
  H   H41       1.0  0.6828070529205343  0.5971077610374739  0.19074564720390125  1.0000
  H   H42       1.0  0.3171929463609659  0.09710776101739639  0.8092543523060943  1.0000
  H   H43       1.0  0.7868473883194786  0.7840402093383065  0.18916113878824126  1.0000
  H   H44       1.0  0.2131526119857477  0.28404020931822904  0.8108388609263136  1.0000
  H   H45       1.0  0.8566223245982953  0.8455108915496367  0.04713886172326106  1.0000
  H   H46       1.0  0.14337767468320492  0.34551089152955916  0.9528611377867345  1.0000
  H   H47       1.0  0.8091405263759561  0.7254989164094561  0.9053135209120785  1.0000
  H   H48       1.0  0.19085947392927013  0.22549891638937852  0.09468647880247623  1.0000
  H   H49       1.0  0.3012875805893744  0.49704974069408914  0.727082174810531  1.0000
  H   H50       1.0  0.698712418692126  0.9970497407141665  0.2729178246994647  1.0000
  H   H51       1.0  0.09749192657059809  0.40033099655357013  0.6275048775361255  1.0000
  H   H52       1.0  0.902508073734628  0.9003309965736477  0.37249512217842934  1.0000
  H   H53       1.0  0.11861275887979834  0.21033410809031772  0.5635793215606458  1.0000
  H   H54       1.0  0.881387241425428  0.7103341081103952  0.43642067815390895  1.0000
  H   H55       1.0  0.3467212430975454  0.1168097186105828  0.6035972157252386  1.0000
  H   H56       1.0  0.6532787571987632  0.6168097186306604  0.3964027846669681  1.0000
  H   H57       1.0  0.5515873029487094  0.2143757279542993  0.7035075743864416  1.0000
  H   H58       1.0  0.4484126973565169  0.7143757279743768  0.29649242532811304  1.0000
  H   H59       1.0  0.27109885651836596  0.49098572043011707  0.02150096456824401  1.0000
  H   H60       1.0  0.7289011437779426  0.9909857204501946  0.9784990358239628  1.0000
  H   H61       1.0  0.4056564224589276  0.5890821952747319  0.03354443012574941  1.0000
  H   H62       1.0  0.5943435768136551  0.08908219525465438  0.9664555700618982  1.0000
  H   H63       1.0  0.30839252983464116  0.5471875321196645  0.9190429180017204  1.0000
  H   H64       1.0  0.6916074704616674  0.04718753209958709  0.08095708239048624  1.0000
  H   H65       1.0  0.7862351334148735  0.8760014595050065  0.7952245911109533  1.0000
  H   H66       1.0  0.21376486688143512  0.37600145948492913  0.2047754092812534  1.0000
  H   H67       1.0  0.9131721610539011  0.9810387967653684  0.8025637877422479  1.0000
  H   H68       1.0  0.08682783822759924  0.48103879757952533  0.19743621176774764  1.0000
  H   H69       1.0  0.9590373625485799  0.8585086748940932  0.869649633364787  1.0000
  H   H70       1.0  0.04096263673292048  0.35850867487401583  0.13035036614520873  1.0000
  H   H71       1.0  0.22285602832723825  0.7775937451307746  0.6925084959690218  1.0000
  H   H72       1.0  0.777143971977988  0.2775937451106971  0.3074915037455331  1.0000
  H   H73       1.0  0.055634463808654784  0.738126118624387  0.622563293263939  1.0000
  H   H74       1.0  0.9443655364965714  0.23812611860430954  0.37743670645061583  1.0000
  H   H75       1.0  0.025305113478865687  0.9257351727847472  0.5436314424803618  1.0000
  H   H76       1.0  0.9746948857937169  0.42573517276466977  0.4563685577072856  1.0000
  H   H77       1.0  0.17507618285074095  0.8598593922521102  0.5309338311758519  1.0000
  H   H78       1.0  0.8249238174455676  0.35985939223203267  0.4690661692163548  1.0000
  H   H79       1.0  0.18995484774958166  0.9679033689060326  0.6163788972025585  1.0000
  H   H80       1.0  0.8100451525556446  0.46790336888595513  0.38362110251199616  1.0000
  C   C1        1.0  0.2602997988984389  0.7706087692309688  0.9580619442857337  1.0000
  C   C2        1.0  0.7397002013978696  0.2706087692108913  0.04193805610647297  1.0000
  C   C3        1.0  0.20720171263958212  0.6639246906853057  0.9907215573448782  1.0000
  C   C4        1.0  0.7927982876567264  0.16392469066522816  0.00927844304732845  1.0000
  C   C5        1.0  0.9992375595807921  0.5568335357551553  0.9140492025124813  1.0000
  C   C6        1.0  0.0007624407155164391  0.05683353573507768  0.0859507978797254  1.0000
  C   C7        1.0  0.9334373498326825  0.5474426410178133  0.7394930045483666  1.0000
  C   C8        1.0  0.06656265047254382  0.047442640997735805  0.26050699516618814  1.0000
  C   C9        1.0  0.8175638717028424  0.526013576162533  0.6512706392030285  1.0000
  C   C10       1.0  0.18243612757865796  0.02601357614245555  0.34872936030696705  1.0000
  C   C11       1.0  0.7258891005773478  0.4259610425791977  0.6602514908236699  1.0000
  C   C12       1.0  0.2741108986952348  0.9259610425992753  0.3397485093639777  1.0000
  C   C13       1.0  0.5982709966884837  0.4274674214137463  0.5732977907944271  1.0000
  C   C14       1.0  0.4017290036078248  0.9274674214338238  0.42670220959777955  1.0000
  C   C15       1.0  0.4690772262084636  0.2929118206333867  0.45266056427728674  1.0000
  C   C16       1.0  0.5309227740967626  0.7929118206534641  0.5473394354372682  1.0000
  C   C17       1.0  0.4820628277442452  0.3156641490248095  0.3547709789982883  1.0000
  C   C18       1.0  0.5179371715372552  0.8156641490448869  0.6452290205117073  1.0000
  C   C19       1.0  0.5005761333639616  0.22784983581737517  0.2969310898546474  1.0000
  C   C20       1.0  0.49942386590862103  0.7278498358374527  0.7030689103330002  1.0000
  C   C21       1.0  0.508654192465783  0.2490876449143798  0.20535313901740376  1.0000
  C   C22       1.0  0.4913458068157172  0.7490876449344572  0.7946468604925918  1.0000
  C   C23       1.0  0.4974616547417278  0.35812674565311836  0.17089236575715605  1.0000
  C   C24       1.0  0.5025383455634984  0.8581267456731959  0.8291076339573987  1.0000
  C   C25       1.0  0.1774570595793466  0.6814042752043438  0.08537341559923514  1.0000
  C   C26       1.0  0.8225429407258797  0.18140427518426633  0.9146265841153195  1.0000
  C   C27       1.0  0.7648119377126097  0.5087809383916779  0.8221912131212115  1.0000
  C   C28       1.0  0.2351880625836989  0.008780938371600478  0.1778087872709953  1.0000
  C   C29       1.0  0.6845586834097609  0.44446219474699417  0.7493888123291397  1.0000
  C   C30       1.0  0.3154413168954654  0.9444621947670717  0.25061118738541516  1.0000
  C   C31       1.0  0.7862929745620636  0.3124923295395182  0.6518465236920771  1.0000
  C   C32       1.0  0.21370702574316275  0.8124923295595957  0.3481534760224777  1.0000
  C   C33       1.0  0.7010549853219532  0.25738536965918274  0.5727034554976707  1.0000
  C   C34       1.0  0.29894501395062933  0.7573853696792602  0.42729654468997685  1.0000
  C   C35       1.0  0.47979007493832554  0.4461781090853259  0.22851951438054807  1.0000
  C   C36       1.0  0.520209925357983  0.9461781091054033  0.7714804860116586  1.0000
  C   C37       1.0  0.4720083366169357  0.42513112611584947  0.32003053591986486  1.0000
  C   C38       1.0  0.5279916636882905  0.925131126135927  0.67996946379469  1.0000
  C   C39       1.0  0.7305230933543044  0.1507811215117883  0.5469738615081856  1.0000
  C   C40       1.0  0.26947690695092186  0.6507811215318658  0.4530261382063692  1.0000
  C   C41       1.0  0.8483631395782205  0.09908573759810858  0.6040003403147113  1.0000
  C   C42       1.0  0.15163686072700572  0.5990857376181861  0.3959996593998434  1.0000
  C   C43       1.0  0.9340953083840856  0.15260618375004864  0.682803153402496  1.0000
  C   C44       1.0  0.06590469191222297  0.6526061837701261  0.3171968469897107  1.0000
  C   C45       1.0  0.9028610666755857  0.26044355890278686  0.7073078106994433  1.0000
  C   C46       1.0  0.0971389336207228  0.7604435589228644  0.29269218969276356  1.0000
  C   C47       1.0  0.5634560176006689  0.4227088237477355  0.7761663921193185  1.0000
  C   C48       1.0  0.43654398167191366  0.922708823767813  0.2238336080683291  1.0000
  C   C49       1.0  0.72400064678546  0.5921313647753446  0.9695679454170837  1.0000
  C   C50       1.0  0.2759993535197664  0.09213136475526704  0.030432054297471044  1.0000
  C   C51       1.0  0.6871438096140207  0.5559297344825412  0.04927038033148158  1.0000
  C   C52       1.0  0.31285618966747963  0.05592973446246377  0.9507296191785141  1.0000
  C   C53       1.0  0.710637484099133  0.6251022068857521  0.12821391464622817  1.0000
  C   C54       1.0  0.2893625161971757  0.12510220686567458  0.8717860857459786  1.0000
  C   C55       1.0  0.7707164871688237  0.7298074487549737  0.12774486097075757  1.0000
  C   C56       1.0  0.229283512103759  0.2298074487348963  0.87225513921689  1.0000
  C   C57       1.0  0.8087476132113272  0.7645298220097875  0.0483163893205379  1.0000
  C   C58       1.0  0.19125238709389916  0.26452982198971  0.9516836103940168  1.0000
  C   C59       1.0  0.784565165171234  0.6964577599200019  0.9685856588197755  1.0000
  C   C60       1.0  0.21543483513399234  0.1964577598999244  0.0314143408947793  1.0000
  C   C61       1.0  0.44061981245197307  0.36253606853773535  0.7215510501808599  1.0000
  C   C62       1.0  0.5593801878443355  0.8625360685578127  0.2784489502113469  1.0000
  C   C63       1.0  0.3115331946884539  0.4139530992784818  0.6998646324394958  1.0000
  C   C64       1.0  0.6884668056167723  0.9139530992985593  0.30013536727505896  1.0000
  C   C65       1.0  0.19673160533252926  0.3592339499719933  0.6431414588929095  1.0000
  C   C66       1.0  0.8032683949637792  0.8592339499920708  0.35685854149929713  1.0000
  C   C67       1.0  0.20872154327529122  0.2525635203363452  0.6079050791254152  1.0000
  C   C68       1.0  0.7912784560062092  0.7525635203564227  0.3920949203845803  1.0000
  C   C69       1.0  0.33639751005224655  0.2002415162235673  0.6303159929176331  1.0000
  C   C70       1.0  0.663602490244062  0.7002415162436448  0.36968400747457364  1.0000
  C   C71       1.0  0.451698190134605  0.25497937657477976  0.6866168774341698  1.0000
  C   C72       1.0  0.5483018091379775  0.7549793765948573  0.3133831227534778  1.0000
  C   C73       1.0  0.30250542359371074  0.5660347772986208  0.9907456540100134  1.0000
  C   C74       1.0  0.6974945767025978  0.06603477727854339  0.009254346382193362  1.0000
  C   C75       1.0  0.8945547459377832  0.8909257496666402  0.8022582463787118  1.0000
  C   C76       1.0  0.10544525435852543  0.3909257496465627  0.19774175401349484  1.0000
  C   C77       1.0  0.9333812339107911  0.8384313151304316  0.7210406041003088  1.0000
  C   C78       1.0  0.06661876638551756  0.33843131511035424  0.27895939629189787  1.0000
  C   C79       1.0  0.12082654097180215  0.8084944093993804  0.6547992154896741  1.0000
  C   C80       1.0  0.8791734593334241  0.30849440937930295  0.3452007842248806  1.0000
  C   C81       1.0  0.1278311814875676  0.8964429125567912  0.5824786441851209  1.0000
  C   C82       1.0  0.8721688177939327  0.39644291253671377  0.4175213553248747  1.0000
  N   N1        1.0  0.8940233273280519  0.5517570930910658  0.8248147402617145  1.0000
  N   N2        1.0  0.10597667195344855  0.051757093070988275  0.1751852592482811  1.0000
  N   N3        1.0  0.5892130715438864  0.32634597320482317  0.5286810224495929  1.0000
  N   N4        1.0  0.41078692876134  0.8263459732249007  0.4713189772649619  1.0000
  N   N5        1.0  0.5695955894711308  0.4704625415993685  0.8598778181708917  1.0000
  N   N6        1.0  0.43040440981036954  0.970462541619446  0.14012218133910384  1.0000
  N   N7        1.0  0.693230645306338  0.524201964286486  0.8872351693066983  1.0000
  N   N8        1.0  0.3067693549899705  0.024201964266408558  0.11276483108550854  1.0000
  O   O1        1.0  0.07476584861319245  0.6466294402812208  0.9151051894017388  1.0000
  O   O2        1.0  0.9252341516831162  0.14662944026114336  0.08489481099046776  1.0000
  O   O3        1.0  0.052850984934061235  0.5579491591682096  0.7390375095316426  1.0000
  O   O4        1.0  0.9471490143474391  0.057949159148132194  0.2609624899783531  1.0000
  O   O5        1.0  0.5186923903796065  0.506299112560543  0.548431949296637  1.0000
  O   O6        1.0  0.4813076099256197  0.006299112540465524  0.4515680504179178  1.0000
  O   O7        1.0  0.008027667283093282  0.4862574071435065  0.9752671201161569  1.0000
  O   O8        1.0  0.9919723330221332  0.986257407163584  0.024732879598397886  1.0000
  O   O9        1.0  0.8557168876619736  0.7865227484399056  0.6559526543911036  1.0000
  O   O10       1.0  0.144283112634335  0.2865227484198281  0.344047346001103  1.0000
  O   O11       1.0  0.06741355341332217  0.8564477512151666  0.7282674273450547  1.0000
  O   O12       1.0  0.9325864458681782  0.35644775119508904  0.2717325721649409  1.0000
