data_image0
_chemical_formula_structural       H34C62N14
_chemical_formula_sum              "H34 C62 N14"
_cell_length_a       7.362244071362501
_cell_length_b       10.011065519672096
_cell_length_c       17.60359904383746
_cell_angle_alpha    102.32200819598428
_cell_angle_beta     106.0711689275128
_cell_angle_gamma    98.91444684456638

_space_group_name_H-M_alt    "P 1"
_space_group_IT_number       1

loop_
  _space_group_symop_operation_xyz
  'x, y, z'

loop_
  _atom_site_type_symbol
  _atom_site_label
  _atom_site_symmetry_multiplicity
  _atom_site_fract_x
  _atom_site_fract_y
  _atom_site_fract_z
  _atom_site_occupancy
  H   H1        1.0  0.6732891020164554  0.04382891326880903  0.9949636002063201  1.0000
  H   H2        1.0  0.32671089701393247  0.9561710865169875  0.005036400022862461  1.0000
  H   H3        1.0  0.7262080623460903  0.9304024936094266  0.8686381199726504  1.0000
  H   H4        1.0  0.2737919380978103  0.06959750617634589  0.1313618804215117  1.0000
  H   H5        1.0  0.7976758956053698  0.42817462193737954  0.09877871879034615  1.0000
  H   H6        1.0  0.20232410375602475  0.5718253788985115  0.9012212816071672  1.0000
  H   H7        1.0  0.8097887536126855  0.31702687090155857  0.9626395720879269  1.0000
  H   H8        1.0  0.190211246831215  0.6829731288842138  0.037360428306235115  1.0000
  H   H9        1.0  0.42471464451896235  0.33689890047433585  0.07009927259416524  1.0000
  H   H10       1.0  0.575285355924938  0.6631010993114365  0.9299007277999969  1.0000
  H   H11       1.0  0.41439756779803616  0.4519688625397985  0.20483273492550833  1.0000
  H   H12       1.0  0.5856024312323518  0.548031137245998  0.7951672653036743  1.0000
  H   H13       1.0  0.27613964166789157  0.457300277793536  0.45092632149861805  1.0000
  H   H14       1.0  0.723860358776009  0.5426997219922364  0.5490736788955439  1.0000
  H   H15       1.0  0.9575425261561861  0.2928093914744308  0.38485672018095884  1.0000
  H   H16       1.0  0.04245747462352459  0.7071906093661785  0.6151432798146074  1.0000
  H   H17       1.0  0.4647477146164487  0.6874297811307107  0.5353496754783412  1.0000
  H   H18       1.0  0.5352522858322553  0.3125702186598041  0.46465032434889425  1.0000
  H   H19       1.0  0.4656500510654831  0.6605916728961407  0.6310582909590619  1.0000
  H   H20       1.0  0.5343499493832209  0.339408326894374  0.3689417088681736  1.0000
  H   H21       1.0  0.45463528205569487  0.8228328614343753  0.7281615567649562  1.0000
  H   H22       1.0  0.5453647183930092  0.17716713835613937  0.2718384430622791  1.0000
  H   H23       1.0  0.433037789055119  0.0664111486789628  0.7890942377162009  1.0000
  H   H24       1.0  0.5669622113887816  0.9335888511068097  0.21090576267796113  1.0000
  H   H25       1.0  0.32662118541171603  0.2168871507699565  0.6951876624564427  1.0000
  H   H26       1.0  0.6733788150369882  0.7831128490205582  0.3048123373707929  1.0000
  H   H27       1.0  0.22683225753869118  0.24289945881745278  0.5542803237842518  1.0000
  H   H28       1.0  0.7731677429100129  0.757100540973062  0.4457196760429837  1.0000
  H   H29       1.0  0.15718888758078348  0.1412091047174742  0.40344855890413567  1.0000
  H   H30       1.0  0.8428111128679204  0.8587908950730406  0.5965514409230999  1.0000
  H   H31       1.0  0.18429904208416067  0.8982075629859045  0.3504779003564583  1.0000
  H   H32       1.0  0.8157009569510307  0.10179243680463436  0.6495220993057976  1.0000
  H   H33       1.0  0.27915300656070585  0.7524434573247475  0.44427426032975154  1.0000
  H   H34       1.0  0.7208469942142014  0.24755654351111936  0.5557257402327413  1.0000
  C   C1        1.0  0.9685426236639445  0.06374959321918597  0.07387836052369649  1.0000
  C   C2        1.0  0.03145737678475951  0.9362504065713287  0.9261216393035389  1.0000
  C   C3        1.0  0.8160657518494799  0.02443758103333168  0.9972367566872394  1.0000
  C   C4        1.0  0.18393424859922422  0.9755624187571832  0.002763243139996073  1.0000
  C   C5        1.0  0.8462821840248377  0.9619695591879727  0.9259603983000131  1.0000
  C   C6        1.0  0.15371781642386645  0.038030440602542154  0.07403960152722226  1.0000
  C   C7        1.0  0.9379350494113644  0.13046576488744832  0.14758666998124803  1.0000
  C   C8        1.0  0.06206495136834617  0.8695342359531607  0.8524133300143181  1.0000
  C   C9        1.0  0.7574738738968183  0.1603303763182848  0.14815806659085032  1.0000
  C   C10       1.0  0.2425261265518857  0.83966962347223  0.851841933236385  1.0000
  C   C11       1.0  0.08256681352014679  0.17106066854784657  0.2248095949755912  1.0000
  C   C12       1.0  0.9174331855150446  0.8289393312426923  0.7751904046866648  1.0000
  C   C13       1.0  0.1048817717327092  0.45040285270474456  0.16268261635372167  1.0000
  C   C14       1.0  0.8951182290470016  0.5495971481358648  0.8373173836418446  1.0000
  C   C15       1.0  0.9350553094809665  0.4098823386932245  0.0917935211044718  1.0000
  C   C16       1.0  0.06494469096773761  0.5901176610972902  0.9082064787227637  1.0000
  C   C17       1.0  0.941720363270179  0.34790111975560256  0.015521765709472023  1.0000
  C   C18       1.0  0.05827963576501241  0.6520988800349362  0.9844782339527839  1.0000
  C   C19       1.0  0.11973152765402113  0.32128987605156195  0.005055613726167143  1.0000
  C   C20       1.0  0.8802684713811703  0.6787101237389768  0.9949443859360888  1.0000
  C   C21       1.0  0.2889563059874307  0.3602619412164005  0.07617298332376317  1.0000
  C   C22       1.0  0.7110436944564699  0.6397380585693718  0.9238270170703989  1.0000
  C   C23       1.0  0.2825004583828171  0.42287982960422016  0.15194472050241953  1.0000
  C   C24       1.0  0.7174995423968935  0.577120171236389  0.8480552794931466  1.0000
  C   C25       1.0  0.10168005215920921  0.5172642960105952  0.2415573872124619  1.0000
  C   C26       1.0  0.8983199468759823  0.48273570377994357  0.758442612449794  1.0000
  C   C27       1.0  0.9317965089102892  0.5495780178688207  0.25566335706190946  1.0000
  C   C28       1.0  0.06820349153841486  0.4504219819216941  0.7443366427653261  1.0000
  C   C29       1.0  0.27200040109696094  0.5572609570098204  0.3101329179540263  1.0000
  C   C30       1.0  0.7279995996827497  0.442739043830789  0.6898670820415399  1.0000
  C   C31       1.0  0.1321314465378702  0.258123413879834  0.9273686592033725  1.0000
  C   C32       1.0  0.8678685539108336  0.7418765859106807  0.07263134062386295  1.0000
  C   C33       1.0  0.9724733999742816  0.21562882211982654  0.8542356310928274  1.0000
  C   C34       1.0  0.027526599060909842  0.7843711776707123  0.14576436856942848  1.0000
  C   C35       1.0  0.31083719087125916  0.23499829632516644  0.9186082997696594  1.0000
  C   C36       1.0  0.6891628095774448  0.7650017034653482  0.08139170005757598  1.0000
  C   C37       1.0  0.1557381658693033  0.47568467617613047  0.47316178928545327  1.0000
  C   C38       1.0  0.8442618345745972  0.524315323609642  0.5268382111087088  1.0000
  C   C39       1.0  0.9748312565640507  0.3831056152113825  0.43562051884250963  1.0000
  C   C40       1.0  0.0251687438846534  0.6168943845791324  0.5643794809847259  1.0000
  C   C41       1.0  0.18243422810332535  0.5936121418255934  0.5377102821576175  1.0000
  C   C42       1.0  0.8175657726763853  0.4063878590150159  0.46228971783794864  1.0000
  C   C43       1.0  0.3808045092903395  0.6906705133094767  0.5781860730022675  1.0000
  C   C44       1.0  0.6191954900758586  0.3093294875311567  0.4218139268283191  1.0000
  C   C45       1.0  0.410921554421879  0.8915959779433037  0.6897219000120086  1.0000
  C   C46       1.0  0.5890784460220215  0.10840402184246874  0.31027810038215337  1.0000
  C   C47       1.0  0.3963057472735805  0.027529051175584414  0.7228844708547226  1.0000
  C   C48       1.0  0.6036942517568075  0.9724709486102121  0.27711552937446005  1.0000
  C   C49       1.0  0.3384316700942319  0.10979136335795424  0.6710652641077324  1.0000
  C   C50       1.0  0.6615683306854788  0.8902086374826551  0.32893473588783384  1.0000
  C   C51       1.0  0.29406971780939123  0.055261741024779445  0.5854957105472449  1.0000
  C   C52       1.0  0.7059302826393129  0.9447382587657354  0.41450428927999056  1.0000
  C   C53       1.0  0.23536948978635427  0.13549020408807488  0.5295752664695094  1.0000
  C   C54       1.0  0.7646305106575462  0.8645097956976974  0.4704247339246527  1.0000
  C   C55       1.0  0.19647215410135724  0.07916168242143008  0.44671775137202485  1.0000
  C   C56       1.0  0.8035278463473468  0.9208383173690845  0.5532822484552107  1.0000
  C   C57       1.0  0.21273992099532552  0.9406363188036638  0.41624363210663934  1.0000
  C   C58       1.0  0.7872600780398661  0.0593636809868752  0.5837563675556167  1.0000
  C   C59       1.0  0.26720138946514216  0.8586686612973845  0.46873496106242574  1.0000
  C   C60       1.0  0.7327986113145687  0.14133133954322477  0.5312650389331405  1.0000
  C   C61       1.0  0.3100883367699153  0.9152447507591944  0.5537326008360068  1.0000
  C   C62       1.0  0.6899116622652762  0.08475524903134427  0.44626739882624905  1.0000
  N   N1        1.0  0.609704986055385  0.1880574022487012  0.15037042482957133  1.0000
  N   N2        1.0  0.39029501439331893  0.8119425975418135  0.8496295749976642  1.0000
  N   N3        1.0  0.19840452492391666  0.2089804235673221  0.29055164042117926  1.0000
  N   N4        1.0  0.8015954744422814  0.7910195772733113  0.7094483594094075  1.0000
  N   N5        1.0  0.7908332924852748  0.5773272528902665  0.26704853867729944  1.0000
  N   N6        1.0  0.2091667079586258  0.4226727468955057  0.7329514617168625  1.0000
  N   N7        1.0  0.8444913642507699  0.1791629797917687  0.7919899572581245  1.0000
  N   N8        1.0  0.15550863478442156  0.8208370199987701  0.20801004240413157  1.0000
  N   N9        1.0  0.4593333735834881  0.21578540513709035  0.911932519117228  1.0000
  N   N10       1.0  0.5406666268652159  0.7842145946534245  0.08806748071000757  1.0000
  N   N11       1.0  0.4129148844866107  0.5902107835858761  0.36740914874300923  1.0000
  N   N12       1.0  0.5870851159620933  0.40978921620463865  0.6325908510842263  1.0000
  N   N13       1.0  0.3698904067399572  0.8377615757255497  0.6087451825251088  1.0000
  N   N14       1.0  0.6301095937087469  0.16223842406496508  0.39125481730212675  1.0000
