data_image0
_chemical_formula_structural       H52C32N32O16Cl4
_chemical_formula_sum              "H52 C32 N32 O16 Cl4"
_cell_length_a       6.053778819487965
_cell_length_b       22.553100169826656
_cell_length_c       9.755172448402693
_cell_angle_alpha    90.0
_cell_angle_beta     105.06358151034408
_cell_angle_gamma    90.0

_space_group_name_H-M_alt    "P 1"
_space_group_IT_number       1

loop_
  _space_group_symop_operation_xyz
  'x, y, z'

loop_
  _atom_site_type_symbol
  _atom_site_label
  _atom_site_symmetry_multiplicity
  _atom_site_fract_x
  _atom_site_fract_y
  _atom_site_fract_z
  _atom_site_occupancy
  H   H1        1.0  0.7655980119268837  0.34188422708802535  0.7552660644974173  1.0000
  H   H2        1.0  0.23440198928163103  0.8418842273135674  0.7447339355498678  1.0000
  H   H3        1.0  0.23440198845498328  0.6581157729196606  0.24473393638628835  1.0000
  H   H4        1.0  0.7655980106473743  0.15811577269411864  0.25526606427227616  1.0000
  H   H5        1.0  0.15716159689690457  0.4885158899236459  0.9519596444404399  1.0000
  H   H6        1.0  0.8428384038587485  0.988515890149188  0.5480403545452837  1.0000
  H   H7        1.0  0.8428384030321008  0.51148411008404  0.048040355381704127  1.0000
  H   H8        1.0  0.15716159607025681  0.011484109858498032  0.4519596452768604  1.0000
  H   H9        1.0  0.2057885658822816  0.243168251313724  0.07991639991810877  1.0000
  H   H10       1.0  0.7942114344168237  0.743168251539266  0.42008359967356823  1.0000
  H   H11       1.0  0.7942114340467236  0.756831748693962  0.9200835999040352  1.0000
  H   H12       1.0  0.20578856551218147  0.25683174846842  0.5799164001485758  1.0000
  H   H13       1.0  0.2401889258389605  0.7222342315400266  0.7480244802336773  1.0000
  H   H14       1.0  0.7598110737199446  0.22223423175788268  0.7519755198189336  1.0000
  H   H15       1.0  0.7598110740900448  0.27776576802426134  0.2519755195884667  1.0000
  H   H16       1.0  0.2401889262090607  0.7777657682498034  0.24802448000321034  1.0000
  H   H17       1.0  0.10209460671775447  0.6830064152603103  0.8319220562328339  1.0000
  H   H18       1.0  0.8979053928411507  0.1830064154781663  0.6680779438197771  1.0000
  H   H19       1.0  0.8979053932112508  0.3169935847473757  0.16807794358931014  1.0000
  H   H20       1.0  0.10209460708785462  0.8169935845295198  0.33192205600236685  1.0000
  H   H21       1.0  0.18889425557490044  0.631091494864291  0.49088617803827383  1.0000
  H   H22       1.0  0.8111057430745954  0.13109149463874897  0.009113821558729017  1.0000
  H   H23       1.0  0.8111057443541048  0.368908505143395  0.5091138217838701  1.0000
  H   H24       1.0  0.18889425685440986  0.8689085053689369  0.990886178263415  1.0000
  H   H25       1.0  0.1853107639424475  0.6364196980423521  0.6605591817009713  1.0000
  H   H26       1.0  0.8146892372660673  0.13641969826020806  0.8394408183463139  1.0000
  H   H27       1.0  0.8146892359865577  0.3635803019653339  0.3394408181211727  1.0000
  H   H28       1.0  0.18531076266293803  0.863580301747478  0.16055918147583012  1.0000
  H   H29       1.0  0.8138721043445126  0.6118890474517884  0.5158050462456379  1.0000
  H   H30       1.0  0.18612789686400213  0.11188904766964439  0.9841949538016471  1.0000
  H   H31       1.0  0.18612789603735444  0.38811095255589756  0.48419495463806766  1.0000
  H   H32       1.0  0.813872103065003  0.8881109523380416  0.015805046020496875  1.0000
  H   H33       1.0  0.9294897871770539  0.5499153374307619  0.44312229875840703  1.0000
  H   H34       1.0  0.0705102131220515  0.04991533720521991  0.05687770083326995  1.0000
  H   H35       1.0  0.07051021275195132  0.4500846625769241  0.5568777010637369  1.0000
  H   H36       1.0  0.9294897868069536  0.9500846628024661  0.9431222989888739  1.0000
  H   H37       1.0  0.9269068229097945  0.5495496378179417  0.6272677480621861  1.0000
  H   H38       1.0  0.07309317829872024  0.04954963759239975  0.8727322519850993  1.0000
  H   H39       1.0  0.07309317701921075  0.4504503621897442  0.37273225175995806  1.0000
  H   H40       1.0  0.9269068216302851  0.9504503624152862  0.1272677478370448  1.0000
  H   H41       1.0  0.5248551488724419  0.5897555382561062  0.6497629949989772  1.0000
  H   H42       1.0  0.4751448506864632  0.08975553803056417  0.8502370050536339  1.0000
  H   H43       1.0  0.4751448510565634  0.4102444617515798  0.35023700482316683  1.0000
  H   H44       1.0  0.5248551492425421  0.9102444615337238  0.14976299476851018  1.0000
  H   H45       1.0  0.37080138151461606  0.5338227418555617  0.5337678191433809  1.0000
  H   H46       1.0  0.6291986196938987  0.033822742073417705  0.9662321809039042  1.0000
  H   H47       1.0  0.6291986184143893  0.4661772581521243  0.4662321806787631  1.0000
  H   H48       1.0  0.37080138068796825  0.9661772579342683  0.03376781997980135  1.0000
  H   H49       1.0  0.34769275161054086  0.5385055393071199  0.7133488400242564  1.0000
  H   H50       1.0  0.6523072479483641  0.03850553908157783  0.7866511600283546  1.0000
  H   H51       1.0  0.6523072483184643  0.46149446070056616  0.2866511597978876  1.0000
  H   H52       1.0  0.3476927519806411  0.9614944609261081  0.21334883979378944  1.0000
  C   C1        1.0  0.5394593415130203  0.32829547531145065  0.8768865883783936  1.0000
  C   C2        1.0  0.4605406580458848  0.8282954755369926  0.6231134116742173  1.0000
  C   C3        1.0  0.4605406584159849  0.6717045246962353  0.12311341144375029  1.0000
  C   C4        1.0  0.5394593418831205  0.17170452447069337  0.37688658814792675  1.0000
  C   C5        1.0  0.3559557579324798  0.41922114205165034  0.9170634716115882  1.0000
  C   C6        1.0  0.6440442416264254  0.9192211418337942  0.582936528441023  1.0000
  C   C7        1.0  0.6440442419965255  0.5807788579560357  0.08293652821055594  1.0000
  C   C8        1.0  0.35595575875544155  0.08077885817389169  0.4170634724426827  1.0000
  C   C9        1.0  0.2652217998048249  0.3272513496780486  0.017315134697212502  1.0000
  C   C10       1.0  0.7347782004942806  0.8272513499035905  0.4826848648944645  1.0000
  C   C11       1.0  0.7347782001241804  0.6727486503296374  0.9826848651249315  1.0000
  C   C12       1.0  0.2652217994347247  0.1727486501040954  0.5173151349276794  1.0000
  C   C13       1.0  0.44971972218138395  0.2381865011705523  0.9602438611893895  1.0000
  C   C14       1.0  0.5502802790271307  0.7381865009526963  0.5397561388578958  1.0000
  C   C15       1.0  0.5502802777476213  0.7618134988371337  0.03975613863275458  1.0000
  C   C16       1.0  0.4497197209018745  0.2618134990549897  0.46024386096424824  1.0000
  C   C17       1.0  0.6187254334395681  0.42415449884793044  0.7836602715587268  1.0000
  C   C18       1.0  0.38127456611933697  0.9241544990734725  0.7163397284938842  1.0000
  C   C19       1.0  0.3812745664894372  0.5758455011597556  0.2163397282634172  1.0000
  C   C20       1.0  0.6187254338096683  0.07584550093421356  0.2836602713282598  1.0000
  C   C21       1.0  0.07174835736514552  0.41211363537660534  0.05138118306838473  1.0000
  C   C22       1.0  0.9282516429339599  0.9121136356021474  0.4486188165232923  1.0000
  C   C23       1.0  0.9282516425638597  0.5878863646310806  0.9486188167537594  1.0000
  C   C24       1.0  0.07174835699504534  0.0878863644055386  0.5513811832988517  1.0000
  C   C25       1.0  0.9447444606269644  0.5770822357900268  0.5381659726028856  1.0000
  C   C26       1.0  0.05525553893194069  0.0770822360078828  0.9618340274497253  1.0000
  C   C27       1.0  0.05525553975490253  0.4229177642176592  0.4618340282808201  1.0000
  C   C28       1.0  0.9447444609970647  0.9229177639998032  0.03816597237241863  1.0000
  C   C29       1.0  0.36723442583410887  0.5637113232445558  0.6214041134740139  1.0000
  C   C30       1.0  0.6327655753744058  0.06371132346241176  0.8785958865732711  1.0000
  C   C31       1.0  0.6327655740948963  0.4362886767631302  0.3785958863481301  1.0000
  C   C32       1.0  0.3672344245545995  0.9362886765452743  0.12140411324887275  1.0000
  N   N1        1.0  0.39373459952433854  0.358744971603706  0.9426289609914158  1.0000
  N   N2        1.0  0.6062654000345666  0.8587449713858499  0.5573710390611952  1.0000
  N   N3        1.0  0.6062654004046667  0.6412550284039801  0.05737103883072826  1.0000
  N   N4        1.0  0.3937346003473004  0.14125502862183606  0.44262896182251044  1.0000
  N   N5        1.0  0.5700229485784416  0.2710331220085643  0.8852267023282026  1.0000
  N   N6        1.0  0.42997705098046335  0.7710331217907083  0.6147732977244081  1.0000
  N   N7        1.0  0.4299770513505636  0.7289668779991216  0.11477329749394126  1.0000
  N   N8        1.0  0.5700229494014035  0.22896687821697775  0.3852267031592974  1.0000
  N   N9        1.0  0.6486221683460818  0.3626843843376974  0.8025194119288589  1.0000
  N   N10       1.0  0.3513778328624329  0.8626843841198415  0.6974805881184263  1.0000
  N   N11       1.0  0.3513778315829235  0.6373156156699886  0.19748058789328518  1.0000
  N   N12       1.0  0.6486221670665723  0.1373156158878446  0.30251941170371766  1.0000
  N   N13       1.0  0.4609802038232373  0.4510122632102059  0.8424221825477265  1.0000
  N   N14       1.0  0.5390197973852774  0.9510122629923499  0.6575778174995585  1.0000
  N   N15       1.0  0.539019796105768  0.54898773679748  0.15757781727441741  1.0000
  N   N16       1.0  0.46098020254372785  0.0489877370153361  0.3424221823225854  1.0000
  N   N17       1.0  0.19768215003304307  0.4437459628450238  0.97508834864006  1.0000
  N   N18       1.0  0.802317849525862  0.9437459626271678  0.5249116514125509  1.0000
  N   N19       1.0  0.8023178498959623  0.5562540371626622  0.024911651182084025  1.0000
  N   N20       1.0  0.19768215040314321  0.0562540373805182  0.475088348409593  1.0000
  N   N21       1.0  0.1150496614628722  0.3528277128235342  0.07427592054801743  1.0000
  N   N22       1.0  0.884950339289095  0.8528277126056782  0.4257240801052213  1.0000
  N   N23       1.0  0.8849503389189948  0.6471722871841518  0.9257240803356883  1.0000
  N   N24       1.0  0.11504966063991034  0.14717228740200783  0.5742759197169227  1.0000
  N   N25       1.0  0.3020882336957575  0.2687011521417181  0.026305322266512568  1.0000
  N   N26       1.0  0.697911766603348  0.7687011519238621  0.4736946773251644  1.0000
  N   N27       1.0  0.6979117662332478  0.7312988478659679  0.9736946775556314  1.0000
  N   N28       1.0  0.3020882333256573  0.23129884808382395  0.5263053224969796  1.0000
  N   N29       1.0  0.17327921652402875  0.6055013118892629  0.5761914563563504  1.0000
  N   N30       1.0  0.8267207830348764  0.10550131166372095  0.9238085436962605  1.0000
  N   N31       1.0  0.8267207834049766  0.3944986881184231  0.42380854346579355  1.0000
  N   N32       1.0  0.17327921689412895  0.8944986879005671  0.07619145612588345  1.0000
  O   O1        1.0  0.46291715236579295  0.1838807076974852  0.9715837581890099  1.0000
  O   O2        1.0  0.5370828471931121  0.6838807074796293  0.528416241863601  1.0000
  O   O3        1.0  0.5370828475632122  0.8161192923102008  0.028416241633134085  1.0000
  O   O4        1.0  0.4629171527358932  0.31611929252805676  0.47158375795854296  1.0000
  O   O5        1.0  0.732523163195254  0.45136721352478437  0.7163056907916933  1.0000
  O   O6        1.0  0.2674768363636511  0.9513672137503263  0.7836943092609178  1.0000
  O   O7        1.0  0.2674768367337512  0.5486327864829016  0.28369430903045073  1.0000
  O   O8        1.0  0.7325231635653542  0.04863278625735958  0.2163056905612262  1.0000
  O   O9        1.0  0.9209474868134899  0.43822952301798623  0.09386979882876369  1.0000
  O   O10       1.0  0.07905251183600587  0.9382295232435283  0.4061302007682392  1.0000
  O   O11       1.0  0.07905251311551524  0.5617704769896998  0.9061302009933803  1.0000
  O   O12       1.0  0.9209474880929994  0.06177047676415776  0.5938697990539048  1.0000
  O   O13       1.0  0.23452850584246002  0.6830056002947462  0.7903833203562477  1.0000
  O   O14       1.0  0.7654714937164451  0.1830056005126023  0.7096166796963633  1.0000
  O   O15       1.0  0.7654714940865451  0.31699439971293975  0.20961667946589624  1.0000
  O   O16       1.0  0.23452850621256022  0.8169943994950838  0.2903833201257808  1.0000
  Cl  Cl1       1.0  0.017711057893579116  0.30631459036583075  0.6824624093096369  1.0000
  Cl  Cl2       1.0  0.982288941665326  0.8063145901479748  0.8175375907429742  1.0000
  Cl  Cl3       1.0  0.9822889420354262  0.6936854096418553  0.31753759051250713  1.0000
  Cl  Cl4       1.0  0.017711058263679295  0.19368540941631324  0.18246240907916986  1.0000
