data_image0
_chemical_formula_structural       H32C52N8F8S16
_chemical_formula_sum              "H32 C52 N8 F8 S16"
_cell_length_a       8.485411006416156
_cell_length_b       13.515350727081916
_cell_length_c       14.005571303625684
_cell_angle_alpha    111.69359392068104
_cell_angle_beta     100.25487488314694
_cell_angle_gamma    106.74812195947658

_space_group_name_H-M_alt    "P 1"
_space_group_IT_number       1

loop_
  _space_group_symop_operation_xyz
  'x, y, z'

loop_
  _atom_site_type_symbol
  _atom_site_label
  _atom_site_symmetry_multiplicity
  _atom_site_fract_x
  _atom_site_fract_y
  _atom_site_fract_z
  _atom_site_occupancy
  H   H1        1.0  0.07317703833824264  0.7055219531430065  0.08263588663319008  1.0000
  H   H2        1.0  0.2614319783693769  0.5472884276797977  0.9959684682263021  1.0000
  H   H3        1.0  0.47262131534374  0.978338202149  0.7439043435600257  1.0000
  H   H4        1.0  0.24376914968404115  0.06987576773659537  0.8688258938993305  1.0000
  H   H5        1.0  0.1123788220133796  0.7644199503154002  0.9326417519373664  1.0000
  H   H6        1.0  0.9608377143832095  0.6206037613975158  0.8801840714794427  1.0000
  H   H7        1.0  0.1750664620378854  0.6469079482958652  0.8729344760121199  1.0000
  H   H8        1.0  0.9876818081025192  0.3825165405253926  0.9580054374918946  1.0000
  H   H9        1.0  0.9560091813219471  0.44798168169302094  0.8709147765645696  1.0000
  H   H10       1.0  0.8759921139418851  0.4769385191901534  0.9829417268339453  1.0000
  H   H11       1.0  0.6676598245404745  0.18761736132418294  0.8124843707686996  1.0000
  H   H12       1.0  0.6794333630901097  0.14241312960197303  0.9161323128751475  1.0000
  H   H13       1.0  0.5578123754776605  0.22833284435891857  0.9066723207692445  1.0000
  H   H14       1.0  0.3076295076468492  0.9676216658811283  0.9800258379015172  1.0000
  H   H15       1.0  0.49891401202511526  0.0809121753948593  0.00292510434856842  1.0000
  H   H16       1.0  0.463552081148373  0.9365667483398704  0.9161173193867453  1.0000
  H   H17       1.0  0.4718703368322994  0.5107887937584551  0.14974800749549064  1.0000
  H   H18       1.0  0.6232327321460122  0.32571349014518797  0.08310076389746654  1.0000
  H   H19       1.0  0.8624898986658667  0.7893062731403276  0.8541356839129267  1.0000
  H   H20       1.0  0.6147000877688994  0.8627281703455685  0.9744164095708099  1.0000
  H   H21       1.0  0.5461462384282602  0.5464849221440609  0.9946748940958554  1.0000
  H   H22       1.0  0.3802690930577437  0.40983841420120853  0.9497771747047119  1.0000
  H   H23       1.0  0.5940387306386522  0.42084083940395  0.9509323624519416  1.0000
  H   H24       1.0  0.32063248285273604  0.19971983371159557  0.07131278217079304  1.0000
  H   H25       1.0  0.30811411544174244  0.2508182334544141  0.9708538350314456  1.0000
  H   H26       1.0  0.25496450158874334  0.31671099005272896  0.08876415446020651  1.0000
  H   H27       1.0  0.024459917920639253  0.008848985889960794  0.9322955230471479  1.0000
  H   H28       1.0  0.0351627322528363  0.9606042335060997  0.03431853937671066  1.0000
  H   H29       1.0  0.8903098536479259  0.02871252813450808  0.014931803255357302  1.0000
  H   H30       1.0  0.6723743583608056  0.7427205982149707  0.06541720285321269  1.0000
  H   H31       1.0  0.8598881420266679  0.8649696935097861  0.10143671926193458  1.0000
  H   H32       1.0  0.8370502147131056  0.7263747705271923  0.005284265432292271  1.0000
  C   C1        1.0  0.1555237237096063  0.6794113792261732  0.03403109783432464  1.0000
  C   C2        1.0  0.15573016374879772  0.5634836663445298  0.025937844256296434  1.0000
  C   C3        1.0  0.4615984087187601  0.7714795145627039  0.20837955079494686  1.0000
  C   C4        1.0  0.38804455777973806  0.6818208467568363  0.2318653450516614  1.0000
  C   C5        1.0  0.6842212803063208  0.8057178866525937  0.3812615835803762  1.0000
  C   C6        1.0  0.8291947313445043  0.8493497506803552  0.4717493271578787  1.0000
  C   C7        1.0  0.12888551998456096  0.970735143590567  0.618420079346817  1.0000
  C   C8        1.0  0.0506448396739355  0.8845121669670308  0.6451958938794947  1.0000
  C   C9        1.0  0.43271647540885244  0.04846333338178386  0.7860712887980911  1.0000
  C   C10       1.0  0.30919906537040626  0.009801014816757794  0.8443056162402994  1.0000
  C   C11       1.0  0.09800012463203074  0.6776440351218967  0.9234196829348367  1.0000
  C   C12       1.0  0.9836762933681694  0.46187306096306285  0.9551998880341376  1.0000
  C   C13       1.0  0.5935466976214405  0.1579436040148199  0.8600538691848687  1.0000
  C   C14       1.0  0.39981823295151914  0.9974775602605979  0.9411479277833318  1.0000
  C   C15       1.0  0.5583799848263864  0.4757872170041843  0.1113415155567939  1.0000
  C   C16       1.0  0.5325516508157013  0.3614176290257925  0.11574989140345963  1.0000
  C   C17       1.0  0.8574151543643636  0.5696660507074373  0.29273080304398597  1.0000
  C   C18       1.0  0.776318723106996  0.4843952446915757  0.3196994510860845  1.0000
  C   C19       1.0  0.07375980500145686  0.6040735109162529  0.4685542232195006  1.0000
  C   C20       1.0  0.2162742491224626  0.6468820455030447  0.56032365423774  1.0000
  C   C21       1.0  0.5109006905188109  0.7679940186062336  0.7124579888239971  1.0000
  C   C22       1.0  0.42841387280257787  0.6812537413263524  0.7373766799931804  1.0000
  C   C23       1.0  0.8063558409230197  0.8517957919578822  0.891447387551907  1.0000
  C   C24       1.0  0.6780699148469136  0.803243955744429  0.94211559926898  1.0000
  C   C25       1.0  0.5182727423198122  0.4622094389458641  0.9952781701330626  1.0000
  C   C26       1.0  0.3432620691267646  0.2770484239368544  0.058109073253248066  1.0000
  C   C27       1.0  0.9473346788157807  0.9690153213609083  0.973053870657349  1.0000
  C   C28       1.0  0.7679261748899633  0.7829461054734804  0.033679889511261635  1.0000
  C   C29       1.0  0.0989584446982727  0.2781518300611654  0.337820809176018  1.0000
  C   C30       1.0  0.23504507367955133  0.3847682133576604  0.3679230435426851  1.0000
  C   C31       1.0  0.3816402833307572  0.4345266185275998  0.45690950943995046  1.0000
  C   C32       1.0  0.41223419013322204  0.3843359399012807  0.5273913158727868  1.0000
  C   C33       1.0  0.27564587094043513  0.2777580257687051  0.49736729107695943  1.0000
  C   C34       1.0  0.12892530506395178  0.22828106224583075  0.4085376224224567  1.0000
  C   C35       1.0  0.9191113234025209  0.2740834701910669  0.17330910486812845  1.0000
  C   C36       1.0  0.945452980807687  0.22673375370515556  0.24616472572555984  1.0000
  C   C37       1.0  0.8123774838948721  0.1193700929455122  0.2155520106993344  1.0000
  C   C38       1.0  0.7050706516913503  0.5384991569877566  0.6442556775957434  1.0000
  C   C39       1.0  0.5669404027007148  0.4353206418409837  0.6181108141006448  1.0000
  C   C40       1.0  0.596038767535296  0.3868367009306296  0.689738085904084  1.0000
  C   C41       1.0  0.4930144796525703  0.07237201583145124  0.41750132250509003  1.0000
  C   C42       1.0  0.6304458229868364  0.17858424502658468  0.4478139813431089  1.0000
  C   C43       1.0  0.778186661927322  0.22624404242872592  0.5356142053386626  1.0000
  C   C44       1.0  0.8087366771633829  0.17420365935230425  0.6043353688948425  1.0000
  C   C45       1.0  0.6717066053695883  0.06788905813161739  0.573586329592978  1.0000
  C   C46       1.0  0.5237308769440715  0.020081834073705913  0.485967988077965  1.0000
  C   C47       1.0  0.31125822859530583  0.07256256286257563  0.2562276740792945  1.0000
  C   C48       1.0  0.33810937510259903  0.023427644815648668  0.32747246987888146  1.0000
  C   C49       1.0  0.19957665164189245  0.919964759359056  0.29980871529059705  1.0000
  C   C50       1.0  0.09912374110218575  0.329160403229994  0.7235578611551561  1.0000
  C   C51       1.0  0.9641841775527448  0.22315690994739829  0.6943664426170529  1.0000
  C   C52       1.0  0.9904540347768109  0.17360560573577138  0.7652688884426913  1.0000
  N   N1        1.0  0.889944548199005  0.3083344858540813  0.10904822237463511  1.0000
  N   N2        1.0  0.6987232193648726  0.029596736787157515  0.1848557782274588  1.0000
  N   N3        1.0  0.8252569686625381  0.6236441656024142  0.6698483152270494  1.0000
  N   N4        1.0  0.630225690657163  0.3507875576792756  0.7516189646489932  1.0000
  N   N5        1.0  0.2790170904682765  0.10877438580383596  0.19416343394890861  1.0000
  N   N6        1.0  0.07921138867610435  0.8343626964707423  0.2727482059852428  1.0000
  N   N7        1.0  0.21360174157728448  0.41776536146080023  0.7515170325853818  1.0000
  N   N8        1.0  0.01860693069198218  0.1363460763571729  0.8270991345696398  1.0000
  F   F1        1.0  0.2222559061087745  0.4425213250844484  0.30751223772886055  1.0000
  F   F2        1.0  0.5014989417319304  0.5377767087208466  0.47764225553160106  1.0000
  F   F3        1.0  0.008541692568312003  0.12564842194416967  0.38859640770437426  1.0000
  F   F4        1.0  0.2887349216543062  0.21945361703072833  0.5570151694081086  1.0000
  F   F5        1.0  0.617783996392609  0.2379613633625651  0.3891704206130254  1.0000
  F   F6        1.0  0.8990777401461588  0.32882312945765113  0.5559344430832099  1.0000
  F   F7        1.0  0.4040195621171017  0.9163336861945759  0.464166663853296  1.0000
  F   F8        1.0  0.6845153029750863  0.00792472292893248  0.6320650787457871  1.0000
  S   S1        1.0  0.3725805853238561  0.7960126015707949  0.10174318944247476  1.0000
  S   S2        1.0  0.19228267884306566  0.5648144493783456  0.1591243332024696  1.0000
  S   S3        1.0  0.6681111697909518  0.870848323168398  0.2963547110060132  1.0000
  S   S4        1.0  0.506911194439729  0.6829462422613835  0.3471228181249619  1.0000
  S   S5        1.0  0.0076736375153339115  0.9711047566617491  0.5053421812941423  1.0000
  S   S6        1.0  0.8411977259414412  0.788137034819252  0.5600901386465061  1.0000
  S   S7        1.0  0.3293931496038158  0.0839852187361733  0.6845515727216502  1.0000
  S   S8        1.0  0.1365166059470485  0.866887379389049  0.7568038971727342  1.0000
  S   S9        1.0  0.7781484249952378  0.5891039326021912  0.18122723832151388  1.0000
  S   S10       1.0  0.5725760874952365  0.375179955116603  0.2531718551640239  1.0000
  S   S11       1.0  0.0674793214544654  0.6644745504275757  0.3789868052386522  1.0000
  S   S12       1.0  0.8948122906077873  0.4815082945616048  0.4319709899101438  1.0000
  S   S13       1.0  0.40208057092798527  0.7639030100216612  0.592662362633442  1.0000
  S   S14       1.0  0.22339956094688357  0.5833082213924857  0.6470523001928424  1.0000
  S   S15       1.0  0.7092588772444515  0.8823060133445356  0.7835941771829881  1.0000
  S   S16       1.0  0.5081250821187588  0.6612564243773248  0.8489298931939993  1.0000
