data_image0
_chemical_formula_structural       H20C24N4O4F8I4
_chemical_formula_sum              "H20 C24 N4 O4 F8 I4"
_cell_length_a       7.320963767779034
_cell_length_b       8.096734790181845
_cell_length_c       13.613096675132258
_cell_angle_alpha    103.59163929185769
_cell_angle_beta     98.50472366671256
_cell_angle_gamma    95.84562497416805

_space_group_name_H-M_alt    "P 1"
_space_group_IT_number       1

loop_
  _space_group_symop_operation_xyz
  'x, y, z'

loop_
  _atom_site_type_symbol
  _atom_site_label
  _atom_site_symmetry_multiplicity
  _atom_site_fract_x
  _atom_site_fract_y
  _atom_site_fract_z
  _atom_site_occupancy
  H   H1        1.0  0.5374148189429242  0.8206036191149152  0.6727924872974798  1.0000
  H   H2        1.0  0.46258518089586037  0.179396380241035  0.3272075130063684  1.0000
  H   H3        1.0  0.33262103563076173  0.8307215984291406  0.7263726076458871  1.0000
  H   H4        1.0  0.6673789643496654  0.16927840216925696  0.2736273926601525  1.0000
  H   H5        1.0  0.2742537895902522  0.6636671177773655  0.37876157057214876  1.0000
  H   H6        1.0  0.7257462102485323  0.33633288157858465  0.6212384297316993  1.0000
  H   H7        1.0  0.04719370849420493  0.6584086894138974  0.4081074113219462  1.0000
  H   H8        1.0  0.9528062926007762  0.34159131086004535  0.5918925882143483  1.0000
  H   H9        1.0  0.21185564568229917  0.11846549719048179  0.48340729779345765  1.0000
  H   H10       1.0  0.7881443542981279  0.8815345034079158  0.516592702512582  1.0000
  H   H11       1.0  0.034817772647306795  0.9533658182084009  0.4015710340907676  1.0000
  H   H12       1.0  0.9651822273331203  0.04663418238999666  0.5984289662152721  1.0000
  H   H13       1.0  0.2627801253722823  0.9740450059537993  0.37236305806372416  1.0000
  H   H14       1.0  0.737219874215804  0.025954993079432803  0.6276369414721553  1.0000
  H   H15       1.0  0.28790762403080056  0.5223247203021731  0.7311778307552934  1.0000
  H   H16       1.0  0.7120923759496266  0.4776752802962245  0.2688221695507464  1.0000
  H   H17       1.0  0.5136928213330862  0.5244214603404029  0.6980898272916843  1.0000
  H   H18       1.0  0.4863071796202523  0.4755785386910923  0.3019101722424186  1.0000
  H   H19       1.0  0.32514255465141056  0.367837255812403  0.6205821727054607  1.0000
  H   H20       1.0  0.6748574449366758  0.6321627432208291  0.3794178268304188  1.0000
  C   C1        1.0  0.8496666602102959  0.39030152976618643  0.9290736153435079  1.0000
  C   C2        1.0  0.15033333977013125  0.6096984708322111  0.0709263849625318  1.0000
  C   C3        1.0  0.025236429074130037  0.4189601911757823  0.9027107221260203  1.0000
  C   C4        1.0  0.9747635707646545  0.5810398081801679  0.09728927817782783  1.0000
  C   C5        1.0  0.8272549570374078  0.47237635416366963  0.028074924701457987  1.0000
  C   C6        1.0  0.17274504294301923  0.5276236464347279  0.9719250756045815  1.0000
  C   C7        1.0  0.03140631347946453  0.10590803755845041  0.10132665963395765  1.0000
  C   C8        1.0  0.9685936861086217  0.8940919614747816  0.8986733399019218  1.0000
  C   C9        1.0  0.8577444846352874  0.008687826145077493  0.05675234462871272  1.0000
  C   C10       1.0  0.14225551534513972  0.9913121744533202  0.9432476556773268  1.0000
  C   C11       1.0  0.8265928701823243  0.9040209066871262  0.9569902397428892  1.0000
  C   C12       1.0  0.1734071297981028  0.09597909391127137  0.04300976056315053  1.0000
  C   C13       1.0  0.3253838761505003  0.9270711946780678  0.5950290066177395  1.0000
  C   C14       1.0  0.6746161236882843  0.07292880467788257  0.40497099368610867  1.0000
  C   C15       1.0  0.38361486710802034  0.7984895032035647  0.6531122205526048  1.0000
  C   C16       1.0  0.6163851328724068  0.20151049739483287  0.3468877797534349  1.0000
  C   C17       1.0  0.234481459504157  0.560449539421107  0.5049435001879063  1.0000
  C   C18       1.0  0.76551854047627  0.4395504611772905  0.4950565001181332  1.0000
  C   C19       1.0  0.1960881533875306  0.6885015659757943  0.4428988429350455  1.0000
  C   C20       1.0  0.8039118463421984  0.31149843429988516  0.5571011566030254  1.0000
  C   C21       1.0  0.1836135309124479  0.986695048909529  0.43561282202713003  1.0000
  C   C22       1.0  0.8163864690679791  0.013304951688868529  0.5643871782789095  1.0000
  C   C23       1.0  0.3637434701683901  0.50046095505928  0.6664725502046697  1.0000
  C   C24       1.0  0.636256529812037  0.4995390455391176  0.33352745010136997  1.0000
  N   N1        1.0  0.23667166132484294  0.8688654079511496  0.49710750572454115  1.0000
  N   N2        1.0  0.7633283382632435  0.13113459108208253  0.5028924938113384  1.0000
  N   N3        1.0  0.32087029689818547  0.6181606528846874  0.6029734790648992  1.0000
  N   N4        1.0  0.679129702940599  0.3818393464712629  0.39702652123894894  1.0000
  O   O1        1.0  0.3629083981098414  0.08343133176547428  0.6400024836873904  1.0000
  O   O2        1.0  0.6370916018705858  0.9165686688329234  0.3599975166186493  1.0000
  O   O3        1.0  0.18420810440127453  0.4038858551276629  0.4621590936132114  1.0000
  O   O4        1.0  0.8157918951868117  0.5961141439055692  0.5378409059226681  1.0000
  F   F1        1.0  0.05541412584002805  0.34080103363811576  0.8079015787910209  1.0000
  F   F2        1.0  0.9445858739987565  0.6591989657178345  0.1920984215128273  1.0000
  F   F3        1.0  0.6617575444538675  0.4472107201801422  0.05902806754633516  1.0000
  F   F4        1.0  0.3382424555265596  0.5527892804182553  0.9409719327597045  1.0000
  F   F5        1.0  0.7155567863927065  0.01388342440686498  0.11022208642919157  1.0000
  F   F6        1.0  0.2844432135877206  0.9861165761915327  0.889777913876848  1.0000
  F   F7        1.0  0.6557288249001693  0.8122354483721836  0.9172996252381903  1.0000
  F   F8        1.0  0.3442711749386152  0.1877645509837667  0.082700375065658  1.0000
  I   I1        1.0  0.626865586725614  0.24048349796246063  0.8191660100882954  1.0000
  I   I2        1.0  0.37313441325481317  0.759516502635937  0.1808339902177443  1.0000
  I   I3        1.0  0.08320799447845226  0.25304113084388996  0.25447328551484194  1.0000
  I   I4        1.0  0.9167920055019749  0.7469588697545076  0.7455267147911977  1.0000
