data_image0
_chemical_formula_structural       H10C12N2O2F4Br2
_chemical_formula_sum              "H10 C12 N2 O2 F4 Br2"
_cell_length_a       4.063951957246642
_cell_length_b       6.116834310508876
_cell_length_c       13.763351142714924
_cell_angle_alpha    88.24534075334576
_cell_angle_beta     87.58632845158911
_cell_angle_gamma    87.96579618542471

_space_group_name_H-M_alt    "P 1"
_space_group_IT_number       1

loop_
  _space_group_symop_operation_xyz
  'x, y, z'

loop_
  _atom_site_type_symbol
  _atom_site_label
  _atom_site_symmetry_multiplicity
  _atom_site_fract_x
  _atom_site_fract_y
  _atom_site_fract_z
  _atom_site_occupancy
  H   H1        1.0  0.7363949649959617  0.7778234469132298  0.9136706514310678  1.0000
  H   H2        1.0  0.2636050349521544  0.2221765539334964  0.08632934879871654  1.0000
  H   H3        1.0  0.10231627979192445  0.8550311667702404  0.9647163868219691  1.0000
  H   H4        1.0  0.8976837202456883  0.14496883244091638  0.03528361340373327  1.0000
  H   H5        1.0  0.45849275410948337  0.506688899792216  0.7850017017665639  1.0000
  H   H6        1.0  0.5415072459281296  0.4933110994189407  0.21499829845913826  1.0000
  H   H7        1.0  0.3018784522895185  0.7802320678157895  0.8038216526830042  1.0000
  H   H8        1.0  0.6981215477480944  0.21976793139536718  0.19617834754269795  1.0000
  H   H9        1.0  0.04820110888794585  0.5820131817180131  0.7545585239204826  1.0000
  H   H10       1.0  0.9517988910601701  0.417986819128713  0.24544147630930183  1.0000
  C   C1        1.0  0.8835633377970515  0.05060460167653889  0.5953372151692893  1.0000
  C   C2        1.0  0.11643666215106453  0.9493953991701874  0.4046627850604952  1.0000
  C   C3        1.0  0.19497323083659399  0.14477158645055854  0.4466759441597456  1.0000
  C   C4        1.0  0.8050267693105778  0.8552284128175165  0.5533240553384509  1.0000
  C   C5        1.0  0.08054610346148709  0.19513258304234368  0.5404931215281419  1.0000
  C   C6        1.0  0.9194538965961879  0.8048674178613009  0.45950687797413664  1.0000
  C   C7        1.0  0.198908803364355  0.3434986244621553  0.942569148202885  1.0000
  C   C8        1.0  0.8010911967828168  0.6565013748059197  0.05743085129531154  1.0000
  C   C9        1.0  0.9421282492752174  0.7150060888122832  0.9571765546548072  1.0000
  C   C10       1.0  0.057871750762395494  0.2849939103988734  0.042823445570895055  1.0000
  C   C11       1.0  0.24134911473235315  0.6069285344872033  0.8063810067925086  1.0000
  C   C12       1.0  0.7586508852157631  0.39307146635952295  0.1936189934372758  1.0000
  N   N1        1.0  0.1287129201944308  0.5449042197518493  0.9049287400609991  1.0000
  N   N2        1.0  0.8712870798431821  0.45509577945930735  0.09507126016470312  1.0000
  O   O1        1.0  0.37155337883258854  0.20099041394565567  0.8992042571576655  1.0000
  O   O2        1.0  0.6284466211155277  0.7990095869010705  0.10079574307211894  1.0000
  F   F1        1.0  0.16502679338656448  0.3854148936660897  0.577923644949338  1.0000
  F   F2        1.0  0.8349732067606072  0.6145851056019854  0.42207635454885845  1.0000
  F   F3        1.0  0.388599571341747  0.2875070254164985  0.396546107367391  1.0000
  F   F4        1.0  0.6114004262356397  0.7124929737938448  0.6034538928556957  1.0000
  Br  Br1       1.0  0.7145417811161789  0.11788717612653196  0.7205887398625825  1.0000
  Br  Br2       1.0  0.2854582163717112  0.8821128247193807  0.2794112603645864  1.0000
