data_image0
_chemical_formula_structural       H56C80N8O8Cl16
_chemical_formula_sum              "H56 C80 N8 O8 Cl16"
_cell_length_a       7.540673960497221
_cell_length_b       15.681140974705496
_cell_length_c       15.357391318471729
_cell_angle_alpha    90.0
_cell_angle_beta     90.0
_cell_angle_gamma    90.0

_space_group_name_H-M_alt    "P 1"
_space_group_IT_number       1

loop_
  _space_group_symop_operation_xyz
  'x, y, z'

loop_
  _atom_site_type_symbol
  _atom_site_label
  _atom_site_symmetry_multiplicity
  _atom_site_fract_x
  _atom_site_fract_y
  _atom_site_fract_z
  _atom_site_occupancy
  H   H1        1.0  0.5224341220211349  0.34832669502880886  0.31608588459690723  1.0000
  H   H2        1.0  0.9775658778799573  0.15167330514000868  0.816085884646664  1.0000
  H   H3        1.0  0.022434122054104205  0.15167330514000868  0.6839141155026065  1.0000
  H   H4        1.0  0.4775658779129265  0.34832669502880886  0.1839141154528496  1.0000
  H   H5        1.0  0.4775658779129265  0.6516733053088263  0.6839141155026065  1.0000
  H   H6        1.0  0.022434122054104205  0.8483266945599177  0.1839141154528496  1.0000
  H   H7        1.0  0.9775658778799573  0.8483266945599177  0.31608588459690723  1.0000
  H   H8        1.0  0.5224341220211349  0.6516733053088263  0.816085884646664  1.0000
  H   H9        1.0  0.8020162377636098  0.45205167477509595  0.5507763222668037  1.0000
  H   H10       1.0  0.6979837634636239  0.04794832475601291  0.05077632221704694  1.0000
  H   H11       1.0  0.30201623779657905  0.04794832475601291  0.4492236778327099  1.0000
  H   H12       1.0  0.1979837634965931  0.45205167477509595  0.9492236778824666  1.0000
  H   H13       1.0  0.1979837634965931  0.5479483249248305  0.4492236778327099  1.0000
  H   H14       1.0  0.30201623779657905  0.9520516749439135  0.9492236778824666  1.0000
  H   H15       1.0  0.6979837634636239  0.9520516749439135  0.5507763222668037  1.0000
  H   H16       1.0  0.8020162377636098  0.5479483249248305  0.05077632221704694  1.0000
  H   H17       1.0  0.7422001228695163  0.3129959387468729  0.48129804513801716  1.0000
  H   H18       1.0  0.7577998770315758  0.18700406078423598  0.9812980445366218  1.0000
  H   H19       1.0  0.2422001229024856  0.18700406078423598  0.5187019549614964  1.0000
  H   H20       1.0  0.2577998770645451  0.3129959387468729  0.018701954911739635  1.0000
  H   H21       1.0  0.2577998770645451  0.6870040609530536  0.5187019549614964  1.0000
  H   H22       1.0  0.2422001229024856  0.8129959389156904  0.018701954911739635  1.0000
  H   H23       1.0  0.7577998770315758  0.8129959389156904  0.48129804513801716  1.0000
  H   H24       1.0  0.7422001228695163  0.6870040609530536  0.9812980445366218  1.0000
  H   H25       1.0  0.840871231565872  0.17922675426064036  0.5578469580113911  1.0000
  H   H26       1.0  0.6591287683352202  0.32077324590817724  0.057846957961634186  1.0000
  H   H27       1.0  0.34087123159884125  0.32077324590817724  0.4421530420881226  1.0000
  H   H28       1.0  0.15912876836818945  0.17922675426064036  0.9421530421378794  1.0000
  H   H29       1.0  0.15912876836818945  0.8207732460769949  0.4421530420881226  1.0000
  H   H30       1.0  0.34087123159884125  0.6792267544294579  0.9421530421378794  1.0000
  H   H31       1.0  0.6591287683352202  0.6792267544294579  0.5578469580113911  1.0000
  H   H32       1.0  0.840871231565872  0.8207732460769949  0.057846957961634186  1.0000
  H   H33       1.0  0.9013508229643481  0.6127668442940238  0.7084251800573813  1.0000
  H   H34       1.0  0.5986491782628856  0.8872331555747203  0.20842518000762447  1.0000
  H   H35       1.0  0.4013508216711759  0.8872331555747203  0.29157482004213237  1.0000
  H   H36       1.0  0.09864917829585482  0.6127668442940238  0.7915748200918892  1.0000
  H   H37       1.0  0.09864917829585482  0.38723315604361125  0.29157482004213237  1.0000
  H   H38       1.0  0.4013508216711759  0.1127668441252063  0.7915748200918892  1.0000
  H   H39       1.0  0.5986491782628856  0.1127668441252063  0.7084251800573813  1.0000
  H   H40       1.0  0.9013508229643481  0.38723315604361125  0.20842518000762447  1.0000
  H   H41       1.0  0.7824589858823368  0.553488024500271  0.6306917020698712  1.0000
  H   H42       1.0  0.7175410140187554  0.9465119760061816  0.13069170202011446  1.0000
  H   H43       1.0  0.2824589859153061  0.9465119760061816  0.3693082980296424  1.0000
  H   H44       1.0  0.21754101405172463  0.553488024500271  0.8693082980793991  1.0000
  H   H45       1.0  0.21754101405172463  0.4465119758373641  0.3693082980296424  1.0000
  H   H46       1.0  0.2824589859153061  0.0534880243314535  0.8693082980793991  1.0000
  H   H47       1.0  0.7175410140187554  0.0534880243314535  0.6306917020698712  1.0000
  H   H48       1.0  0.7824589858823368  0.4465119758373641  0.13069170202011446  1.0000
  H   H49       1.0  0.010585464962171191  0.5745577878888503  0.6137648064396655  1.0000
  H   H50       1.0  0.48941453500485954  0.9254422119798936  0.11376480638990863  1.0000
  H   H51       1.0  0.5105854649292019  0.9254422119798936  0.3862351936598482  1.0000
  H   H52       1.0  0.9894145362980317  0.5745577878888503  0.886235193709605  1.0000
  H   H53       1.0  0.9894145362980317  0.42544221244878483  0.3862351936598482  1.0000
  H   H54       1.0  0.5105854649292019  0.07455778772003277  0.886235193709605  1.0000
  H   H55       1.0  0.48941453500485954  0.07455778772003277  0.6137648064396655  1.0000
  H   H56       1.0  0.010585464962171191  0.42544221244878483  0.11376480638990863  1.0000
  C   C1        1.0  0.5412564183760142  0.6322944724490122  0.2908521745244231  1.0000
  C   C2        1.0  0.958743581525078  0.8677055274197318  0.79085217457418  1.0000
  C   C3        1.0  0.041256418408983496  0.8677055274197318  0.7091478255750905  1.0000
  C   C4        1.0  0.45874358155804723  0.6322944724490122  0.20914782552533373  1.0000
  C   C5        1.0  0.45874358155804723  0.36770552725091427  0.7091478255750905  1.0000
  C   C6        1.0  0.041256418408983496  0.1322944722801946  0.20914782552533373  1.0000
  C   C7        1.0  0.958743581525078  0.1322944722801946  0.2908521745244231  1.0000
  C   C8        1.0  0.5412564183760142  0.36770552725091427  0.79085217457418  1.0000
  C   C9        1.0  0.5816365517162339  0.5541964142799382  0.3308841771771484  1.0000
  C   C10       1.0  0.9183634481848583  0.9458035862265146  0.8308841772269052  1.0000
  C   C11       1.0  0.08163655174920315  0.9458035862265146  0.669115822271213  1.0000
  C   C12       1.0  0.4183634482178276  0.5541964142799382  0.1691158222214562  1.0000
  C   C13       1.0  0.4183634482178276  0.445803586057697  0.669115822271213  1.0000
  C   C14       1.0  0.08163655174920315  0.05419641411112058  0.1691158222214562  1.0000
  C   C15       1.0  0.9183634481848583  0.05419641411112058  0.3308841771771484  1.0000
  C   C16       1.0  0.5816365517162339  0.445803586057697  0.8308841772269052  1.0000
  C   C17       1.0  0.542909155262039  0.4754500353020404  0.2911175294870917  1.0000
  C   C18       1.0  0.9570908446390531  0.024549964866777182  0.7911175295368486  1.0000
  C   C19       1.0  0.042909155295008224  0.024549964866777182  0.7088824706124219  1.0000
  C   C20       1.0  0.4570908446720225  0.4754500353020404  0.20888247056266512  1.0000
  C   C21       1.0  0.4570908446720225  0.5245499650355948  0.7088824706124219  1.0000
  C   C22       1.0  0.042909155295008224  0.9754500348331493  0.20888247056266512  1.0000
  C   C23       1.0  0.9570908446390531  0.9754500348331493  0.2911175294870917  1.0000
  C   C24       1.0  0.542909155262039  0.5245499650355948  0.7911175295368486  1.0000
  C   C25       1.0  0.8381458558093203  0.3937422672214678  0.5844522402189593  1.0000
  C   C26       1.0  0.6618541440917719  0.10625773230964103  0.0844522401692025  1.0000
  C   C27       1.0  0.3381458558422895  0.10625773230964103  0.4155477598805543  1.0000
  C   C28       1.0  0.16185414412474117  0.3937422672214678  0.9155477599303112  1.0000
  C   C29       1.0  0.16185414412474117  0.6062577324784586  0.4155477598805543  1.0000
  C   C30       1.0  0.3381458558422895  0.8937422673902854  0.9155477599303112  1.0000
  C   C31       1.0  0.6618541440917719  0.8937422673902854  0.5844522402189593  1.0000
  C   C32       1.0  0.8381458558093203  0.6062577324784586  0.0844522401692025  1.0000
  C   C33       1.0  0.8055017551242181  0.3163568612770008  0.5448879400458447  1.0000
  C   C34       1.0  0.6944982447768742  0.18364313889181674  0.04488793999608788  1.0000
  C   C35       1.0  0.3055017551571873  0.18364313889181674  0.4551120594025167  1.0000
  C   C36       1.0  0.1944982448098434  0.3163568612770008  0.9551120594522735  1.0000
  C   C37       1.0  0.1944982448098434  0.6836431384229257  0.4551120594025167  1.0000
  C   C38       1.0  0.3055017551571873  0.8163568614458184  0.9551120594522735  1.0000
  C   C39       1.0  0.6944982447768742  0.8163568614458184  0.5448879400458447  1.0000
  C   C40       1.0  0.8055017551242181  0.6836431384229257  0.04488793999608788  1.0000
  C   C41       1.0  0.9185361091441864  0.39745139910758637  0.667503483333791  1.0000
  C   C42       1.0  0.5814638907569057  0.1025486010612312  0.1675034832840341  1.0000
  C   C43       1.0  0.41853610917715567  0.1025486010612312  0.3324965167657227  1.0000
  C   C44       1.0  0.08146389078987502  0.39745139910758637  0.8324965168154795  1.0000
  C   C45       1.0  0.08146389078987502  0.6025486012300487  0.3324965167657227  1.0000
  C   C46       1.0  0.41853610917715567  0.8974513986386953  0.8324965168154795  1.0000
  C   C47       1.0  0.5814638907569057  0.8974513986386953  0.667503483333791  1.0000
  C   C48       1.0  0.9185361091441864  0.6025486012300487  0.1675034832840341  1.0000
  C   C49       1.0  0.857204444040673  0.2416784433041662  0.5881899941649017  1.0000
  C   C50       1.0  0.6427955558604193  0.25832155686465136  0.08818999411514496  1.0000
  C   C51       1.0  0.3572044440736422  0.25832155686465136  0.4118100059346119  1.0000
  C   C52       1.0  0.14279555589338846  0.2416784433041662  0.9118100059843687  1.0000
  C   C53       1.0  0.14279555589338846  0.7583215570334689  0.4118100059346119  1.0000
  C   C54       1.0  0.3572044440736422  0.7416784428352752  0.9118100059843687  1.0000
  C   C55       1.0  0.6427955558604193  0.7416784428352752  0.5881899941649017  1.0000
  C   C56       1.0  0.857204444040673  0.7583215570334689  0.08818999411514496  1.0000
  C   C57       1.0  0.9606192918493932  0.31808087103136806  0.7072723019654684  1.0000
  C   C58       1.0  0.5393807080516989  0.1819191291374495  0.20727230191571155  1.0000
  C   C59       1.0  0.4606192918823625  0.1819191291374495  0.2927276981340453  1.0000
  C   C60       1.0  0.03938070808466821  0.31808087103136806  0.7927276981838021  1.0000
  C   C61       1.0  0.03938070808466821  0.6819191293062671  0.2927276981340453  1.0000
  C   C62       1.0  0.4606192918823625  0.8180808712001856  0.7927276981838021  1.0000
  C   C63       1.0  0.5393807080516989  0.8180808712001856  0.7072723019654684  1.0000
  C   C64       1.0  0.9606192918493932  0.6819191293062671  0.20727230191571155  1.0000
  C   C65       1.0  0.9109414405111158  0.5587930141138577  0.6636898610339179  1.0000
  C   C66       1.0  0.5890585593899763  0.9412069857548864  0.16368986098416108  1.0000
  C   C67       1.0  0.41094144054408516  0.9412069857548864  0.3363101390655957  1.0000
  C   C68       1.0  0.08905855942294556  0.5587930141138577  0.8363101391153526  1.0000
  C   C69       1.0  0.08905855942294556  0.44120698558606875  0.3363101390655957  1.0000
  C   C70       1.0  0.41094144054408516  0.058793014582748805  0.8363101391153526  1.0000
  C   C71       1.0  0.5890585593899763  0.058793014582748805  0.6636898610339179  1.0000
  C   C72       1.0  0.9109414405111158  0.44120698558606875  0.16368986098416108  1.0000
  C   C73       1.0  0.9583746715291581  0.4773867604452547  0.7099322595815034  1.0000
  C   C74       1.0  0.5416253283719341  0.02261323972356289  0.20993225953174666  1.0000
  C   C75       1.0  0.4583746715621274  0.02261323972356289  0.29006774051801015  1.0000
  C   C76       1.0  0.04162532840490335  0.4773867604452547  0.7900677399166147  1.0000
  C   C77       1.0  0.04162532840490335  0.5226132392546717  0.29006774051801015  1.0000
  C   C78       1.0  0.4583746715621274  0.9773867606140723  0.7900677399166147  1.0000
  C   C79       1.0  0.5416253283719341  0.9773867606140723  0.7099322595815034  1.0000
  C   C80       1.0  0.9583746715291581  0.5226132392546717  0.20993225953174666  1.0000
  N   N1        1.0  0.9313786256761721  0.24241120120861556  0.6667252619710504  1.0000
  N   N2        1.0  0.56862137422492  0.257588798960202  0.16672526192129364  1.0000
  N   N3        1.0  0.4313786257091415  0.257588798960202  0.3332747381284632  1.0000
  N   N4        1.0  0.06862137425788926  0.24241120120861556  0.8332747381782201  1.0000
  N   N5        1.0  0.06862137425788926  0.7575887984913109  0.3332747381284632  1.0000
  N   N6        1.0  0.4313786257091415  0.7424112013774332  0.8332747381782201  1.0000
  N   N7        1.0  0.56862137422492  0.7424112013774332  0.6667252619710504  1.0000
  N   N8        1.0  0.9313786256761721  0.7575887984913109  0.16672526192129364  1.0000
  O   O1        1.0  0.5920878456473673  0.40350611605408604  0.3318730352250471  1.0000
  O   O2        1.0  0.9079121555798663  0.09649388347702281  0.8318730346236516  1.0000
  O   O3        1.0  0.09208784568033651  0.09649388347702281  0.6681269648744667  1.0000
  O   O4        1.0  0.4079121556128356  0.40350611605408604  0.1681269648247098  1.0000
  O   O5        1.0  0.4079121556128356  0.5964938836458403  0.6681269648744667  1.0000
  O   O6        1.0  0.09208784568033651  0.9035061162229037  0.1681269648247098  1.0000
  O   O7        1.0  0.9079121555798663  0.9035061162229037  0.3318730352250471  1.0000
  O   O8        1.0  0.5920878456473673  0.5964938836458403  0.8318730346236516  1.0000
  Cl  Cl1       1.0  0.5925401447413032  0.7266902879312973  0.34143855758191427  1.0000
  Cl  Cl2       1.0  0.907459855159789  0.7733097119374468  0.8414385576316711  1.0000
  Cl  Cl3       1.0  0.09254014477427255  0.7733097119374468  0.6585614425175994  1.0000
  Cl  Cl4       1.0  0.4074598551927581  0.7266902879312973  0.15856144246784254  1.0000
  Cl  Cl5       1.0  0.4074598551927581  0.2733097124063379  0.6585614425175994  1.0000
  Cl  Cl6       1.0  0.09254014477427255  0.22669028776247968  0.15856144246784254  1.0000
  Cl  Cl7       1.0  0.907459855159789  0.22669028776247968  0.34143855758191427  1.0000
  Cl  Cl8       1.0  0.5925401447413032  0.2733097124063379  0.8414385576316711  1.0000
  Cl  Cl9       1.0  0.679156267308275  0.5525630943549841  0.4321448071729173  1.0000
  Cl  Cl10      1.0  0.8208437325928171  0.9474369055137599  0.9321448072226741  1.0000
  Cl  Cl11      1.0  0.17915626734124435  0.9474369055137599  0.5678551929265964  1.0000
  Cl  Cl12      1.0  0.3208437326257864  0.5525630943549841  0.06785519287683951  1.0000
  Cl  Cl13      1.0  0.3208437326257864  0.44743690534494235  0.5678551929265964  1.0000
  Cl  Cl14      1.0  0.17915626734124435  0.05256309418616652  0.06785519287683951  1.0000
  Cl  Cl15      1.0  0.8208437325928171  0.05256309418616652  0.4321448071729173  1.0000
  Cl  Cl16      1.0  0.679156267308275  0.44743690534494235  0.9321448072226741  1.0000
