data_image0
_chemical_formula_structural       H56C50N4O12F8
_chemical_formula_sum              "H56 C50 N4 O12 F8"
_cell_length_a       11.101586076400418
_cell_length_b       8.509832524301435
_cell_length_c       13.403978878538393
_cell_angle_alpha    90.0
_cell_angle_beta     91.17636609078426
_cell_angle_gamma    90.0

_space_group_name_H-M_alt    "P 1"
_space_group_IT_number       1

loop_
  _space_group_symop_operation_xyz
  'x, y, z'

loop_
  _atom_site_type_symbol
  _atom_site_label
  _atom_site_symmetry_multiplicity
  _atom_site_fract_x
  _atom_site_fract_y
  _atom_site_fract_z
  _atom_site_occupancy
  H   H1        1.0  0.3863452090767735  0.5785022132858156  0.5425816005474274  1.0000
  H   H2        1.0  0.6136547906264831  0.07850221353854892  0.4574183994002967  1.0000
  H   H3        1.0  0.47825287482965334  0.7634973475031287  0.20109104012174683  1.0000
  H   H4        1.0  0.5217471257745638  0.263497347755862  0.7989089598399188  1.0000
  H   H5        1.0  0.7972213543705968  0.9232934147132327  0.3552165860449342  1.0000
  H   H6        1.0  0.20277864533265977  0.42329341496596584  0.6447834139027899  1.0000
  H   H7        1.0  0.9704372309916749  0.9625200785807925  0.24035772910120212  1.0000
  H   H8        1.0  0.029562768711581786  0.46252007883352564  0.759642270846522  1.0000
  H   H9        1.0  0.7206621959607046  0.014932847343012966  0.9921962993005553  1.0000
  H   H10       1.0  0.2793378046435125  0.5149328470902798  0.007803700661110393  1.0000
  H   H11       1.0  0.5505208458509753  0.9605475497499293  0.10398763326341874  1.0000
  H   H12       1.0  0.44947915475324174  0.4605475488275514  0.896012366698247  1.0000
  H   H13       1.0  0.33457613318820134  0.87722198276902  0.36923877480584627  1.0000
  H   H14       1.0  0.6654238665150553  0.37722198302175325  0.6307612251418778  1.0000
  H   H15       1.0  0.31222143272938974  0.5934965671271651  0.22960744333004426  1.0000
  H   H16       1.0  0.6877785678748274  0.0934965673798984  0.7703925566316214  1.0000
  H   H17       1.0  0.15165694638649893  0.7517289302382754  0.1419916255095294  1.0000
  H   H18       1.0  0.8483430533167576  0.25172892931589735  0.8580083744381948  1.0000
  H   H19       1.0  0.29417883495205427  0.8436043176524572  0.1339536176892737  1.0000
  H   H20       1.0  0.7058211647512024  0.34360431790519047  0.8660463822584504  1.0000
  H   H21       1.0  0.18759164478654236  0.915125152905318  0.2195900909603866  1.0000
  H   H22       1.0  0.8124083549167143  0.4151251519829401  0.7804099089873375  1.0000
  H   H23       1.0  0.12814715302131985  0.7340755076155626  0.3728081962225739  1.0000
  H   H24       1.0  0.8718528466819367  0.23407550786829578  0.6271918037251503  1.0000
  H   H25       1.0  0.19575444863459915  0.5461886725416547  0.38411322307068557  1.0000
  H   H26       1.0  0.8042455510686575  0.046188672794388014  0.6158867768770385  1.0000
  H   H27       1.0  0.09624082219133175  0.5868987862848671  0.28224934752210956  1.0000
  H   H28       1.0  0.9037591775135889  0.08689878536248918  0.7177506531716886  1.0000
  H   H29       1.0  0.6123051037229542  0.6300629389225424  0.9501720564377688  1.0000
  H   H30       1.0  0.38769489688126285  0.13006293917527567  0.049827943523896905  1.0000
  H   H31       1.0  0.5363531388759302  0.4488253357622374  0.29405426921296657  1.0000
  H   H32       1.0  0.4636468608273263  0.9488253355095041  0.7059457307347576  1.0000
  H   H33       1.0  0.21216006923892433  0.2705824883656003  0.1485425722644885  1.0000
  H   H34       1.0  0.7878399304643322  0.7705824892879783  0.8514574276832356  1.0000
  H   H35       1.0  0.04628284519097247  0.20971748208951987  0.2655249310316536  1.0000
  H   H36       1.0  0.953717154512284  0.7097174830118979  0.7344750689160705  1.0000
  H   H37       1.0  0.30598269453863775  0.1846517725833848  0.5091316046577882  1.0000
  H   H38       1.0  0.6940173051646189  0.6846517723306516  0.4908683952899359  1.0000
  H   H39       1.0  0.4672629197439319  0.2592195479406431  0.395117622124815  1.0000
  H   H40       1.0  0.5327370799593246  0.7592195476879099  0.6048823778229091  1.0000
  H   H41       1.0  0.6656999158430251  0.325254502024082  0.11979129239899662  1.0000
  H   H42       1.0  0.3343000838602314  0.8252545029464601  0.8802087075487275  1.0000
  H   H43       1.0  0.7128148805870718  0.6085332555266826  0.25601983852682336  1.0000
  H   H44       1.0  0.28718511911618483  0.10853325460430462  0.7439801614209008  1.0000
  H   H45       1.0  0.8170777625420637  0.2743299075902363  0.26172481943367737  1.0000
  H   H46       1.0  0.18292223806215355  0.7743299073375031  0.7382751805279884  1.0000
  H   H47       1.0  0.72241649882399  0.35715635664046125  0.35274387478572916  1.0000
  H   H48       1.0  0.27758350087926664  0.8571563575628393  0.6472561251619949  1.0000
  H   H49       1.0  0.8686524728760375  0.4337036210125616  0.33677908522693073  1.0000
  H   H50       1.0  0.13134752682721906  0.9337036207598284  0.6632209147207935  1.0000
  H   H51       1.0  0.9222313180724389  0.5967727068068105  0.19358888948914962  1.0000
  H   H52       1.0  0.07776868163081772  0.09677270705954369  0.8064111104585744  1.0000
  H   H53       1.0  0.819786646561212  0.6368204115091983  0.09376563074731838  1.0000
  H   H54       1.0  0.18021335404300506  0.13682041176193158  0.9062343692143473  1.0000
  H   H55       1.0  0.8808070828602769  0.44552719564962645  0.10816297958998475  1.0000
  H   H56       1.0  0.11919291684297964  0.9455271953968932  0.8918370203577394  1.0000
  C   C1        1.0  0.563442314990157  0.9024075712501041  0.30581263483579646  1.0000
  C   C2        1.0  0.43655768471309964  0.4024075715028373  0.6941873651119276  1.0000
  C   C3        1.0  0.6629812067752822  0.9386808326942638  0.23706869004408118  1.0000
  C   C4        1.0  0.3370187929279745  0.43868083294699706  0.762931309903643  1.0000
  C   C5        1.0  0.7812916040346337  0.942029248766922  0.27569457817195797  1.0000
  C   C6        1.0  0.2187083965695836  0.4420292490196552  0.7243054217897078  1.0000
  C   C7        1.0  0.8777141538003652  0.9656601850310299  0.21260748755899217  1.0000
  C   C8        1.0  0.12228584590289132  0.46566018528376313  0.787392512388732  1.0000
  C   C9        1.0  0.8532365532003889  0.9917342821846885  0.11171572733802619  1.0000
  C   C10       1.0  0.14676344650286774  0.4917342824374218  0.888284272609698  1.0000
  C   C11       1.0  0.7369899441192649  0.9925332767572119  0.07123516736598305  1.0000
  C   C12       1.0  0.2630100564849523  0.4925332770099452  0.9287648325956825  1.0000
  C   C13       1.0  0.641805822738692  0.9633184902981321  0.1347572585377122  1.0000
  C   C14       1.0  0.3581941778655251  0.4633184905508652  0.8652427414239535  1.0000
  C   C15       1.0  0.42017033178378105  0.6620817041828337  0.4119091306014532  1.0000
  C   C16       1.0  0.5798296679194755  0.16208170443556696  0.5880908693462709  1.0000
  C   C17       1.0  0.37143782596081315  0.7738635609095719  0.3311253081995839  1.0000
  C   C18       1.0  0.628562174643404  0.2738635611623052  0.6688746917620818  1.0000
  C   C19       1.0  0.27086558452008214  0.6950671876454524  0.26676908614150846  1.0000
  C   C20       1.0  0.7291344151831745  0.1950671878981857  0.7332309138062156  1.0000
  C   C21       1.0  0.22435593087618225  0.8079906485074375  0.18592376416484824  1.0000
  C   C22       1.0  0.7756440688270745  0.3079906487601707  0.8140762357828759  1.0000
  C   C23       1.0  0.1674778789330953  0.6370102107790885  0.33052344869270256  1.0000
  C   C24       1.0  0.8325221207701613  0.13701021103182176  0.6694765512550216  1.0000
  C   C25       1.0  0.44579509732693323  0.3086465841130769  0.19296885270253095  1.0000
  C   C26       1.0  0.5542049023763234  0.8086465838603436  0.8070311472451931  1.0000
  C   C27       1.0  0.3498163205260103  0.26858057587773987  0.264431741098706  1.0000
  C   C28       1.0  0.6501836791772464  0.7685805756250066  0.7355682588490181  1.0000
  C   C29       1.0  0.2312467677104701  0.2530732495439783  0.22780340781784966  1.0000
  C   C30       1.0  0.7687532319927866  0.7530732504663563  0.7721965921298743  1.0000
  C   C31       1.0  0.13911707455271408  0.2172419591949323  0.2926705073998114  1.0000
  C   C32       1.0  0.8608829251505424  0.717241958942199  0.7073294925479127  1.0000
  C   C33       1.0  0.1664036243363363  0.19120684753235734  0.39369467387354723  1.0000
  C   C34       1.0  0.8335963753669202  0.691206847279624  0.6063053260741768  1.0000
  C   C35       1.0  0.2844549431159954  0.20561843667348056  0.4307376071869102  1.0000
  C   C36       1.0  0.7155450574882217  0.7056184364207473  0.5692623927747555  1.0000
  C   C37       1.0  0.3757463219107281  0.2462837246226588  0.3661138843516274  1.0000
  C   C38       1.0  0.624253678693489  0.7462837243699255  0.6338861156100384  1.0000
  C   C39       1.0  0.5852454954107715  0.5453400494953871  0.08100824240479984  1.0000
  C   C40       1.0  0.414754504292485  0.04534004974812039  0.9189917575429243  1.0000
  C   C41       1.0  0.6363534737379076  0.4314981851304329  0.1593337941403325  1.0000
  C   C42       1.0  0.3636465268663094  0.9314981848776996  0.8406662058213333  1.0000
  C   C43       1.0  0.7449317583308092  0.5019768365360003  0.2180025812198352  1.0000
  C   C44       1.0  0.25506824137244755  0.0019768367887335065  0.781997418727889  1.0000
  C   C45       1.0  0.7899846211155028  0.3851667128160156  0.2969084429406572  1.0000
  C   C46       1.0  0.21001537858775376  0.8851667125632824  0.7030915570070668  1.0000
  C   C47       1.0  0.8470890458268155  0.5481297953490458  0.1490155390906141  1.0000
  C   C48       1.0  0.1529109547774015  0.04812979442666785  0.8509844608710515  1.0000
  C   C49       1.0  0.06980605363393294  0.1381827993255989  0.46266964251177944  1.0000
  C   C50       1.0  0.9301939460693236  0.6381827990728657  0.5373303574359447  1.0000
  N   N1        1.0  0.4686762233556634  0.8230850818741557  0.2674764385765999  1.0000
  N   N2        1.0  0.5313237763475932  0.32308508212688897  0.7325235613711241  1.0000
  N   N3        1.0  0.542265041395267  0.3877164081170734  0.22774139314524292  1.0000
  N   N4        1.0  0.45773495920895013  0.8877164078643401  0.7722586068164229  1.0000
  O   O1        1.0  0.5669679004022594  0.9397779823706337  0.39674701400009676  1.0000
  O   O2        1.0  0.43303209930099723  0.439777982623367  0.6032529859476274  1.0000
  O   O3        1.0  0.3592791837764882  0.6688989723058351  0.4957629901979134  1.0000
  O   O4        1.0  0.640720816827729  0.16889897255856828  0.5042370097637523  1.0000
  O   O5        1.0  0.5056293972846723  0.5720265088765184  0.39850841023261574  1.0000
  O   O6        1.0  0.4943706024185844  0.0720265079541404  0.6014915897151084  1.0000
  O   O7        1.0  0.43760770899427076  0.27092020946549183  0.10224802938331547  1.0000
  O   O8        1.0  0.5623922907089858  0.7709202092127586  0.8977519705644087  1.0000
  O   O9        1.0  0.6414264397168695  0.5376800891126355  0.9949321336089959  1.0000
  O   O10       1.0  0.358573559986387  0.03768008819025754  0.0050678663387281634  1.0000
  O   O11       1.0  0.5020616166177145  0.6372855040934176  0.09770744922877626  1.0000
  O   O12       1.0  0.4979383839865026  0.13728550434615078  0.9022925507328894  1.0000
  F   F1        1.0  0.9476058445287631  0.01714162406644713  0.04996695683183553  1.0000
  F   F2        1.0  0.05239415517449343  0.5171416238137139  0.9500330431158887  1.0000
  F   F3        1.0  0.06624319813119742  0.9768184704295777  0.46911281876520516  1.0000
  F   F4        1.0  0.9337568015720592  0.4768184706823109  0.530887181182519  1.0000
  F   F5        1.0  0.9574160014915787  0.18419389400717628  0.43251047055178926  1.0000
  F   F6        1.0  0.04258399821167793  0.6841938937544431  0.5674895293959349  1.0000
  F   F7        1.0  0.08876770479335717  0.19178740889897547  0.5579780906583076  1.0000
  F   F8        1.0  0.9112322949098994  0.6917874086462422  0.4420219092894165  1.0000
