data_image0
_chemical_formula_structural       H32C28Br8
_chemical_formula_sum              "H32 C28 Br8"
_cell_length_a       5.309345957546271
_cell_length_b       11.579383216539705
_cell_length_c       13.603284174041166
_cell_angle_alpha    78.94036342275679
_cell_angle_beta     80.95305000890085
_cell_angle_gamma    84.11312666549499

_space_group_name_H-M_alt    "P 1"
_space_group_IT_number       1

loop_
  _space_group_symop_operation_xyz
  'x, y, z'

loop_
  _atom_site_type_symbol
  _atom_site_label
  _atom_site_symmetry_multiplicity
  _atom_site_fract_x
  _atom_site_fract_y
  _atom_site_fract_z
  _atom_site_occupancy
  H   H1        1.0  0.7037479656945926  0.4061805073594355  0.12316095945967198  1.0000
  H   H2        1.0  0.29625203504912623  0.5938194929895284  0.8768390404971499  1.0000
  H   H3        1.0  0.9588591369168031  0.5574368762369767  0.15761652733884293  1.0000
  H   H4        1.0  0.04114086194067338  0.44256312412400567  0.8423834726186447  1.0000
  H   H5        1.0  0.2296114399682548  0.5082477718540915  0.2973224766818948  1.0000
  H   H6        1.0  0.7703885587862258  0.4917522274858051  0.7026775240372929  1.0000
  H   H7        1.0  0.24532394368362073  0.30457865283449537  0.39856843942985093  1.0000
  H   H8        1.0  0.7546760570600981  0.6954213475144686  0.6014315605269709  1.0000
  H   H9        1.0  0.9961723635561023  0.15218064211832785  0.3617042238362924  1.0000
  H   H10       1.0  0.003827637187616695  0.8478193582306359  0.6382957761205295  1.0000
  H   H11       1.0  0.7039587239659532  0.17536770116707773  0.13581547496188703  1.0000
  H   H12       1.0  0.2960412769437499  0.8246322983127364  0.8641845250000757  1.0000
  H   H13       1.0  0.47440489868821817  0.19650744030649636  0.24047518160056192  1.0000
  H   H14       1.0  0.5255951003352423  0.8034925591853364  0.7595248183620666  1.0000
  H   H15       1.0  0.7337282322618937  0.08799464478912629  0.2575173429309333  1.0000
  H   H16       1.0  0.26627176659558277  0.9120053555718562  0.7424826570265545  1.0000
  H   H17       1.0  0.6083528869175545  0.036066146980503824  0.7052417657372706  1.0000
  H   H18       1.0  0.39164711210590597  0.9639338525113289  0.29475823422535796  1.0000
  H   H19       1.0  0.7489862593026708  0.19082623108839614  0.5605846374328386  1.0000
  H   H20       1.0  0.25101373955480577  0.8091737692725862  0.43941536252464913  1.0000
  H   H21       1.0  0.08429271857718443  0.3214713647678304  0.573041269251823  1.0000
  H   H22       1.0  0.915707280280292  0.678528635593152  0.4269587307056648  1.0000
  H   H23       1.0  0.28085935392394323  0.29336997759219813  0.7317293754581246  1.0000
  H   H24       1.0  0.7191406450995175  0.7066300218996348  0.2682706245045039  1.0000
  H   H25       1.0  0.13722983990936294  0.13954821277576088  0.8770566891934941  1.0000
  H   H26       1.0  0.8627701608343559  0.8604517875732032  0.12294331076332776  1.0000
  H   H27       1.0  0.8326633948523863  0.893693466476382  0.8718817333470011  1.0000
  H   H28       1.0  0.1673366060573165  0.10630653300343232  0.12811826661496156  1.0000
  H   H29       1.0  0.5640427322303504  0.987477962767232  0.9068686420386745  1.0000
  H   H30       1.0  0.43595726679311025  0.012522036724600762  0.09313135792395406  1.0000
  H   H31       1.0  0.8515293457935803  0.9895163534934914  0.9574697774440295  1.0000
  H   H32       1.0  0.14847065495013856  0.01048364685547245  0.04253022251279242  1.0000
  C   C1        1.0  0.8328831250755262  0.2672954627081668  0.23980985142000993  1.0000
  C   C2        1.0  0.16711687583417678  0.7327045367716476  0.7601901485419527  1.0000
  C   C3        1.0  0.8259745872823033  0.38299936470575524  0.18249770567587073  1.0000
  C   C4        1.0  0.17402541174115707  0.6170006347860775  0.8175022942867578  1.0000
  C   C5        1.0  0.9667765474616019  0.46915989773560635  0.20312238593711948  1.0000
  C   C6        1.0  0.03322345156185851  0.5308401017562263  0.7968776140255092  1.0000
  C   C7        1.0  0.1159364328627407  0.44212247981350017  0.28217257306461485  1.0000
  C   C8        1.0  0.8840635661607198  0.5578775196783324  0.7178274268980137  1.0000
  C   C9        1.0  0.12456909015856911  0.3276583591762454  0.3387968460683155  1.0000
  C   C10       1.0  0.8754309088648914  0.6723416403155874  0.661203153894313  1.0000
  C   C11       1.0  0.9850697036130114  0.2412174039095651  0.31725793775619204  1.0000
  C   C12       1.0  0.014930296861727622  0.7587825962874627  0.682742062957189  1.0000
  C   C13       1.0  0.6794671268407539  0.1762259569196802  0.21737068363072262  1.0000
  C   C14       1.0  0.32053287406894915  0.823774042560134  0.78262931633124  1.0000
  C   C15       1.0  0.8606835278889841  0.07642492218962037  0.8019685135464886  1.0000
  C   C16       1.0  0.13931647302071878  0.923575077290194  0.19803148641547408  1.0000
  C   C17       1.0  0.756560183533772  0.0917418520585655  0.7114708523059942  1.0000
  C   C18       1.0  0.2434398154896886  0.9082581474332672  0.28852914765663445  1.0000
  C   C19       1.0  0.8376848611301271  0.1783260502769328  0.6292627355388576  1.0000
  C   C20       1.0  0.16231513789333352  0.8216739492148999  0.37073726442377103  1.0000
  C   C21       1.0  0.02699240204605963  0.2515695742910765  0.6360157997095164  1.0000
  C   C22       1.0  0.9730075968114169  0.748430426069906  0.36398420024797135  1.0000
  C   C23       1.0  0.1331280710249543  0.23739674685731463  0.725644788272179  1.0000
  C   C24       1.0  0.8668719279985062  0.7626032526345182  0.2743552116904496  1.0000
  C   C25       1.0  0.050406780535459446  0.1508624936421702  0.8078552651454426  1.0000
  C   C26       1.0  0.949593218322017  0.8491375067188122  0.1921447348120453  1.0000
  C   C27       1.0  0.7733123309252262  0.9821340713767239  0.8892310514814518  1.0000
  C   C28       1.0  0.22668766981849264  0.017865928972240146  0.11076894847536997  1.0000
  Br  Br1       1.0  0.2642601397586814  0.3547745101529781  0.032866049866515916  1.0000
  Br  Br2       1.0  0.735739859264779  0.6452254893388547  0.9671339500961127  1.0000
  Br  Br3       1.0  0.5957373718790467  0.2804333952204264  0.9164257947708767  1.0000
  Br  Br4       1.0  0.4042626271444137  0.7195666042714064  0.08357420519175185  1.0000
  Br  Br5       1.0  0.6780747487692017  0.4690589730912384  0.444224591779919  1.0000
  Br  Br6       1.0  0.3219252521405013  0.5309410263885758  0.5557754081820436  1.0000
  Br  Br7       1.0  0.3295912803231021  0.06337570735559105  0.5328402752238999  1.0000
  Br  Br8       1.0  0.6704087185343743  0.9366242930053914  0.46715972473358786  1.0000
