data_image0
_chemical_formula_structural       H54C57O18
_chemical_formula_sum              "H54 C57 O18"
_cell_length_a       16.321923428464043
_cell_length_b       16.32191894295672
_cell_length_c       5.28614243436063
_cell_angle_alpha    89.99991406418575
_cell_angle_beta     90.00020089344763
_cell_angle_gamma    120.00048890180355

_space_group_name_H-M_alt    "P 1"
_space_group_IT_number       1

loop_
  _space_group_symop_operation_xyz
  'x, y, z'

loop_
  _atom_site_type_symbol
  _atom_site_label
  _atom_site_symmetry_multiplicity
  _atom_site_fract_x
  _atom_site_fract_y
  _atom_site_fract_z
  _atom_site_occupancy
  H   H1        1.0  0.7920357281100492  0.47645841111734233  0.3446574001804362  1.0000
  H   H2        1.0  0.5235413564302455  0.31557843649977513  0.34465836502552727  1.0000
  H   H3        1.0  0.6844218608303747  0.20796392274369596  0.34465815917122467  1.0000
  H   H4        1.0  0.4587026713841892  0.8097944035554978  0.6779851045919533  1.0000
  H   H5        1.0  0.1902052167480983  0.648909710193571  0.6779855151518663  1.0000
  H   H6        1.0  0.35109000783421374  0.5412967436638834  0.677986775414749  1.0000
  H   H7        1.0  0.12536723733183977  0.14312853599542602  0.011320555550782613  1.0000
  H   H8        1.0  0.8568717114511984  0.9822408525372999  0.011318883575418439  1.0000
  H   H9        1.0  0.017759546583101152  0.8746329265990923  0.011321690079371623  1.0000
  H   H10       1.0  0.20796377723058607  0.5235415755699826  0.6553448201461878  1.0000
  H   H11       1.0  0.4764573031317847  0.6844222272185646  0.655344084195285  1.0000
  H   H12       1.0  0.3155769416497274  0.7920368074760394  0.6553419613199211  1.0000
  H   H13       1.0  0.5412963193580198  0.1902057118862518  0.32201671846644886  1.0000
  H   H14       1.0  0.8097934144029023  0.35109072147920295  0.32201759239438726  1.0000
  H   H15       1.0  0.648908781632983  0.4587037191376021  0.3220144612027602  1.0000
  H   H16       1.0  0.8746319881279719  0.8568721885667908  0.9886810367153565  1.0000
  H   H17       1.0  0.14312686058124002  0.017760100529795323  0.988680033768164  1.0000
  H   H18       1.0  0.9822389201930005  0.12536847640950433  0.9886807156286723  1.0000
  H   H19       1.0  0.7309148853468713  0.658045970589822  0.30842364235711817  1.0000
  H   H20       1.0  0.34195233912471884  0.07286901251771058  0.3084257854923336  1.0000
  H   H21       1.0  0.9271305294779405  0.26908544232061815  0.30842628470961136  1.0000
  H   H22       1.0  0.3975815452933313  0.9913821646520179  0.6417610400355095  1.0000
  H   H23       1.0  0.008616289015007064  0.40619914933124557  0.641763574760038  1.0000
  H   H24       1.0  0.5937998509521346  0.6024183085239991  0.6417612099078533  1.0000
  H   H25       1.0  0.0642438124433105  0.3247130815162424  0.9750969460749711  1.0000
  H   H26       1.0  0.67528544108908  0.7395306190614092  0.9750992484033328  1.0000
  H   H27       1.0  0.26046811179234464  0.9357557597426008  0.9750970336654576  1.0000
  H   H28       1.0  0.2690842656946827  0.34195437477568585  0.691576122489958  1.0000
  H   H29       1.0  0.6580464393234324  0.9271317933995649  0.6915725037954823  1.0000
  H   H30       1.0  0.07286837033956982  0.7309157668472561  0.6915768701297532  1.0000
  H   H31       1.0  0.6024177218815785  0.008618450962209605  0.3582402760372675  1.0000
  H   H32       1.0  0.9913823479728036  0.5938009533745098  0.35823678409074544  1.0000
  H   H33       1.0  0.40619914011722424  0.39758217762449627  0.35823998509244864  1.0000
  H   H34       1.0  0.9357548848576289  0.6752869886468873  0.024904207306453676  1.0000
  H   H35       1.0  0.32471374998139363  0.26046939097038424  0.024902080912616746  1.0000
  H   H36       1.0  0.739530218020735  0.06424462311411887  0.024903291131702053  1.0000
  H   H37       1.0  0.7945398407916469  0.7948275179847869  0.6041017440413404  1.0000
  H   H38       1.0  0.20517090565202115  0.999711790404279  0.604103953743743  1.0000
  H   H39       1.0  0.00028632039365378184  0.20545951971544052  0.6041007913395307  1.0000
  H   H40       1.0  0.4612038881821863  0.1281622501665192  0.9374446173550532  1.0000
  H   H41       1.0  0.8718361182857101  0.3330411148454021  0.9374456535126822  1.0000
  H   H42       1.0  0.6669576187033909  0.5387962302881165  0.9374439430251731  1.0000
  H   H43       1.0  0.127871437829305  0.46149597680547655  0.2707706616520175  1.0000
  H   H44       1.0  0.5385022501959074  0.6663747544605158  0.27077277609316514  1.0000
  H   H45       1.0  0.33362357433682854  0.872128386367735  0.2707698076019581  1.0000
  H   H46       1.0  0.2054589044886284  0.2051728111072978  0.3958983707752161  1.0000
  H   H47       1.0  0.794828311652436  0.00028830027760162925  0.39589759501384514  1.0000
  H   H48       1.0  0.9997115957405043  0.7945397821468839  0.3958975982092565  1.0000
  H   H49       1.0  0.5387954698210897  0.8718382076854955  0.06255608579526183  1.0000
  H   H50       1.0  0.12816346589345431  0.6669588506186342  0.06255658194833014  1.0000
  H   H51       1.0  0.33304111165851935  0.4612039035461667  0.06255688686897212  1.0000
  H   H52       1.0  0.8721274196780504  0.5385039469150869  0.7292302420211193  1.0000
  H   H53       1.0  0.46149676802383865  0.3336254281896391  0.729228727261396  1.0000
  H   H54       1.0  0.6663750121914679  0.12787175878507148  0.7292297264503959  1.0000
  C   C1        1.0  0.7974154916874975  0.5900885687948844  0.5006915422916413  1.0000
  C   C2        1.0  0.4099109531021318  0.20732777028726593  0.5006923799542318  1.0000
  C   C3        1.0  0.792671911623616  0.20258414395119248  0.5006930887802988  1.0000
  C   C4        1.0  0.46408311375422817  0.9234248074307551  0.834016639890407  1.0000
  C   C5        1.0  0.07657494733487401  0.5406592321647843  0.8340170632536487  1.0000
  C   C6        1.0  0.4593404145412517  0.5359162736886216  0.8340167846151262  1.0000
  C   C7        1.0  0.1307492101743378  0.2567587205668069  0.16735185249901258  1.0000
  C   C8        1.0  0.743241543251653  0.8739911994024828  0.16735314442905924  1.0000
  C   C9        1.0  0.1260084378083222  0.8692512992191566  0.16735447445481597  1.0000
  C   C10       1.0  0.20258394298732607  0.40991187207850444  0.4993080806763566  1.0000
  C   C11       1.0  0.5900879101398028  0.7926725545606428  0.49930751542129276  1.0000
  C   C12       1.0  0.2073268843672052  0.7974172484472059  0.4993101303771862  1.0000
  C   C13       1.0  0.5359154850061123  0.07657521391749893  0.16598528531996834  1.0000
  C   C14       1.0  0.9234238249607274  0.45934112522565035  0.16598290589911216  1.0000
  C   C15       1.0  0.5406583233967779  0.46408395494475674  0.16598398474320156  1.0000
  C   C16       1.0  0.8692503385221318  0.7432419544749622  0.8326477193921148  1.0000
  C   C17       1.0  0.2567577067567805  0.1260090730955831  0.8326468966125706  1.0000
  C   C18       1.0  0.8739902275832996  0.1307499545172552  0.8326480107076825  1.0000
  C   C19       1.0  0.7753467473851859  0.6617732766442558  0.4666320889379483  1.0000
  C   C20       1.0  0.33822585293002205  0.11357396528620224  0.46663249478843233  1.0000
  C   C21       1.0  0.8864257927017505  0.2246537568055373  0.46663479271785846  1.0000
  C   C22       1.0  0.44201314645196904  0.9951079086428872  0.7999668041331542  1.0000
  C   C23       1.0  0.004890951305464218  0.4469054972077858  0.7999681993631255  1.0000
  C   C24       1.0  0.553093811224188  0.5579864249148516  0.7999665719480785  1.0000
  C   C25       1.0  0.10868083038631658  0.3284438486469923  0.1332991167102996  1.0000
  C   C26       1.0  0.6715555188925418  0.7802369649718011  0.13330135968416934  1.0000
  C   C27       1.0  0.2197621579901634  0.8913195254598575  0.13330116690958677  1.0000
  C   C28       1.0  0.22465283396063432  0.33822743306296776  0.5333669078647234  1.0000
  C   C29       1.0  0.6617730831321267  0.8864268201155664  0.5333648259300965  1.0000
  C   C30       1.0  0.11357329938682774  0.7753479765880311  0.5333701857573941  1.0000
  C   C31       1.0  0.5579858615001875  0.0048923539497175116  0.20003482785939283  1.0000
  C   C32       1.0  0.9951079337012487  0.5530949924774177  0.20003196085554428  1.0000
  C   C33       1.0  0.44690493793172786  0.44201380654841976  0.20003448684631844  1.0000
  C   C34       1.0  0.8913182346916366  0.67155630641252  0.8667006367863218  1.0000
  C   C35       1.0  0.32844376628243394  0.21976301393239392  0.8666999109884671  1.0000
  C   C36       1.0  0.7802364654510863  0.10868121183364415  0.8667003004984928  1.0000
  C   C37       1.0  0.8110164025000209  0.738442289451788  0.6320190284011713  1.0000
  C   C38       1.0  0.26155747909942456  0.07257507745609525  0.6320207813898409  1.0000
  C   C39       1.0  0.9274248526655267  0.18898421623881725  0.6320217421099765  1.0000
  C   C40       1.0  0.4776816984386942  0.07177448258091022  0.9653584776806498  1.0000
  C   C41       1.0  0.9282241124044127  0.4059072503851709  0.9653589350871564  1.0000
  C   C42       1.0  0.5940917356317896  0.5223180417403659  0.9653575223585691  1.0000
  C   C43       1.0  0.144350424378407  0.405110554440909  0.2986801482787542  1.0000
  C   C44       1.0  0.5948885211301141  0.739239476495244  0.2986815836996335  1.0000
  C   C45       1.0  0.2607592093758693  0.855650571363844  0.2986819113865935  1.0000
  C   C46       1.0  0.18898336077222638  0.26155863461534845  0.3679792608917312  1.0000
  C   C47       1.0  0.7384413049156899  0.9274249884626046  0.3679783099969278  1.0000
  C   C48       1.0  0.07257462243656783  0.811017262472464  0.367981581096631  1.0000
  C   C49       1.0  0.522317362360166  0.9282259469714771  0.0346428913601211  1.0000
  C   C50       1.0  0.07177476845059229  0.5940929761265024  0.03464131404382318  1.0000
  C   C51       1.0  0.40590695504257585  0.47768220387173477  0.03464350616765764  1.0000
  C   C52       1.0  0.8556490323642281  0.5948900420728657  0.7013199835666991  1.0000
  C   C53       1.0  0.40511054536407215  0.2607604939184268  0.7013197134561733  1.0000
  C   C54       1.0  0.7392393575994244  0.14435040221958334  0.7013195522371485  1.0000
  C   C55       1.0  0.6666644137992433  0.3333343415320361  0.833294156156601  1.0000
  C   C56       1.0  0.3334032823514962  0.6666680586098381  0.16659169044863437  1.0000
  C   C57       1.0  6.477727975128161e-05  0.9999339350905242  0.49995305848392974  1.0000
  O   O1        1.0  0.7593915514658433  0.5153530109813045  0.3333657671262268  1.0000
  O   O2        1.0  0.4846464265088943  0.24403936179844568  0.3333671340756681  1.0000
  O   O3        1.0  0.755960623188283  0.24060847280492342  0.33336686782768565  1.0000
  O   O4        1.0  0.4260611781151934  0.8486906475593542  0.6666918068184908  1.0000
  O   O5        1.0  0.15130939934785345  0.5773715268820345  0.6666928426902311  1.0000
  O   O6        1.0  0.42262850077558806  0.5739380174963777  0.6666927845663402  1.0000
  O   O7        1.0  0.09272316903487762  0.18202016666877482  3.566087721190971e-05  1.0000
  O   O8        1.0  0.8179800770629428  0.9107038485752535  3.766939486108848e-05  1.0000
  O   O9        1.0  0.08929610590889316  0.9072765321967251  3.752301383475567e-05  1.0000
  O   O10       1.0  0.2406079415760008  0.484647359146889  0.6666354903044559  1.0000
  O   O11       1.0  0.5153522894686001  0.7559613118244127  0.6666329164208087  1.0000
  O   O12       1.0  0.2440381496975888  0.7593935166859533  0.6666361980974455  1.0000
  O   O13       1.0  0.5739369408682654  0.15130866420863529  0.33331205553131843  1.0000
  O   O14       1.0  0.848689667280261  0.4226293052125994  0.33330732698731996  1.0000
  O   O15       1.0  0.5773704718443847  0.4260624721893269  0.33330876797245973  1.0000
  O   O16       1.0  0.9072759596295397  0.8179800138594651  0.9999643725970176  1.0000
  O   O17       1.0  0.18201984841083976  0.08929665243430486  0.9999630924023417  1.0000
  O   O18       1.0  0.910702651710984  0.09272446119649311  0.9999659136943203  1.0000
