data_image0
_chemical_formula_structural       H74C50O6
_chemical_formula_sum              "H74 C50 O6"
_cell_length_a       7.980340457602777
_cell_length_b       9.765731549529377
_cell_length_c       13.749783579403859
_cell_angle_alpha    89.7211646277574
_cell_angle_beta     84.62036715359386
_cell_angle_gamma    85.524199459922

_space_group_name_H-M_alt    "P 1"
_space_group_IT_number       1

loop_
  _space_group_symop_operation_xyz
  'x, y, z'

loop_
  _atom_site_type_symbol
  _atom_site_label
  _atom_site_symmetry_multiplicity
  _atom_site_fract_x
  _atom_site_fract_y
  _atom_site_fract_z
  _atom_site_occupancy
  H   H1        1.0  0.35412569649169534  0.2856528567554961  0.31595972858278476  1.0000
  H   H2        1.0  0.6458743028870578  0.71434714307436  0.6840402713855946  1.0000
  H   H3        1.0  0.16855821906173243  0.24757586385105568  0.26696915072856836  1.0000
  H   H4        1.0  0.8314417815755687  0.7524241359794506  0.733030849168067  1.0000
  H   H5        1.0  0.5778548412947521  0.032384341732863246  0.1680395940226353  1.0000
  H   H6        1.0  0.4221451593425491  0.967615658097643  0.8319604058740001  1.0000
  H   H7        1.0  0.6327475716171287  0.17165131132183864  0.23692612180712097  1.0000
  H   H8        1.0  0.3672524277616242  0.8283486885080175  0.7630738781612584  1.0000
  H   H9        1.0  0.6603215596128985  0.17838473349172873  0.1081769123391354  1.0000
  H   H10       1.0  0.3396784397658545  0.8216152663381275  0.891823087629244  1.0000
  H   H11       1.0  0.6440922577728712  0.37923057035137225  0.2845825963552795  1.0000
  H   H12       1.0  0.3559077416058819  0.6207694294784839  0.7154174036130998  1.0000
  H   H13       1.0  0.7100052916565427  0.45951381893866833  0.17286322323305117  1.0000
  H   H14       1.0  0.2899947076230261  0.5404861819183107  0.8271367767359868  1.0000
  H   H15       1.0  0.17680452035342728  0.8291384565408658  0.1719772751948238  1.0000
  H   H16       1.0  0.8231954802838738  0.17086154328964043  0.8280227247018117  1.0000
  H   H17       1.0  0.37980316745968556  0.8870942845571524  0.16418651408749896  1.0000
  H   H18       1.0  0.6201968331776154  0.11290571527335394  0.8358134858091365  1.0000
  H   H19       1.0  0.7638384880791785  0.7026301061707743  0.17009230177855558  1.0000
  H   H20       1.0  0.23616151245893824  0.2973698946868547  0.8299076981187385  1.0000
  H   H21       1.0  0.3493578791035403  0.4828463415774493  0.2734257837131593  1.0000
  H   H22       1.0  0.6506421215337607  0.5171536582530571  0.7265742161834761  1.0000
  H   H23       1.0  0.4201657689905656  0.5793733381825391  0.17199398086151882  1.0000
  H   H24       1.0  0.5798342303881875  0.42062666164731705  0.8280060191068606  1.0000
  H   H25       1.0  0.1664732319946009  0.6203110758407223  0.10949611290066509  1.0000
  H   H26       1.0  0.8335267673841522  0.3796889239891339  0.8905038870677143  1.0000
  H   H27       1.0  0.08000888515824013  0.5265927521266299  0.21072790584701515  1.0000
  H   H28       1.0  0.9199911154790609  0.47340724770387627  0.7892720940496203  1.0000
  H   H29       1.0  0.9904258285601788  0.5244287982706355  0.0967384869691603  1.0000
  H   H30       1.0  0.009574172077122127  0.47557120155987076  0.903261512927475  1.0000
  H   H31       1.0  0.5386059645858325  0.5216509654414405  0.43055086409873616  1.0000
  H   H32       1.0  0.46139403605694446  0.4783490343907467  0.5694491365248714  1.0000
  H   H33       1.0  0.19108985428042805  0.9814636612693072  0.0405230459463029  1.0000
  H   H34       1.0  0.8089101462576886  0.018536339588321758  0.9594769539509912  1.0000
  H   H35       1.0  0.8008126974415128  0.913758243677156  0.26367494691435134  1.0000
  H   H36       1.0  0.1991873031957881  0.08624175615335043  0.7363250529822842  1.0000
  H   H37       1.0  0.9764210962390529  0.1888476636716633  0.9919401381806523  1.0000
  H   H38       1.0  0.023578904398248147  0.811152336158843  0.008059861715983083  1.0000
  H   H39       1.0  0.8941297559954096  0.30053217815296496  0.0885519845642415  1.0000
  H   H40       1.0  0.10587024464189146  0.6994678216775415  0.911448015332394  1.0000
  H   H41       1.0  0.9126546307768454  0.023036060155982446  0.12181365363025634  1.0000
  H   H42       1.0  0.0873453686019077  0.9769639396738735  0.8781863463381231  1.0000
  H   H43       1.0  0.9812673058395599  0.12976059328492043  0.2109562513638574  1.0000
  H   H44       1.0  0.018732693440008896  0.8702394075720584  0.7890437486051808  1.0000
  H   H45       1.0  0.4477319600051595  0.0367796340147577  0.32669015132110274  1.0000
  H   H46       1.0  0.5522680393790695  0.9632203658167794  0.6733098493742489  1.0000
  H   H47       1.0  0.26872330349693585  0.09622399087804863  0.4027003417361171  1.0000
  H   H48       1.0  0.7312766971403653  0.9037760089524578  0.5972996581605184  1.0000
  H   H49       1.0  0.698932917586089  0.9321814993146329  0.44012714306146766  1.0000
  H   H50       1.0  0.301067083051212  0.06781850051587354  0.5598728568351677  1.0000
  H   H51       1.0  0.2500720229761717  0.8646886496031602  0.33432021140233814  1.0000
  H   H52       1.0  0.7499279764025814  0.13531135022669613  0.6656797885660413  1.0000
  H   H53       1.0  0.07980241179570957  0.9808444747895684  0.31181389110850005  1.0000
  H   H54       1.0  0.9201975875830436  0.01915552504028779  0.6881861088598793  1.0000
  H   H55       1.0  0.5654968886872724  0.7353037731511081  0.5239059392036376  1.0000
  H   H56       1.0  0.4345031119500286  0.26469622667939835  0.4760940606929978  1.0000
  H   H57       1.0  0.5188490115373504  0.09033288077547706  0.017912323782778294  1.0000
  H   H58       1.0  0.48115098784140276  0.9096671190543791  0.9820876761856011  1.0000
  H   H59       1.0  0.47400722195765793  0.3685863311225638  0.9955061520295799  1.0000
  H   H60       1.0  0.5259927774210952  0.6314136687072923  0.0044938479387995126  1.0000
  H   H61       1.0  0.9280597905090434  0.47702174087368465  0.4022948209335937  1.0000
  H   H62       1.0  0.07194021012825767  0.5229782589568217  0.5977051789630418  1.0000
  H   H63       1.0  0.11399076261239728  0.3911416057510758  0.44025848687809155  1.0000
  H   H64       1.0  0.8860092367663558  0.6088583940787804  0.5597415130902879  1.0000
  H   H65       1.0  0.7611339498963735  0.3801814576842537  0.5481724053329209  1.0000
  H   H66       1.0  0.23886604948237944  0.6198185421456024  0.45182759463545846  1.0000
  H   H67       1.0  0.9476212996230613  0.2917713759950543  0.5823754164243719  1.0000
  H   H68       1.0  0.05237870091505549  0.7082286248625748  0.41762458347292236  1.0000
  H   H69       1.0  0.7970110570033077  0.24770005369013945  0.38737553363888105  1.0000
  H   H70       1.0  0.2029889436339933  0.7522999461403669  0.6126244662577545  1.0000
  H   H71       1.0  0.7748427197624458  0.13874387923292353  0.49086376226717937  1.0000
  H   H72       1.0  0.22515727951712303  0.8612561216240553  0.5091362377018587  1.0000
  H   H73       1.0  0.9769500432959316  0.15400306870226477  0.42772281401679224  1.0000
  H   H74       1.0  0.02304995608282151  0.8459969311275914  0.5722771859515872  1.0000
  C   C1        1.0  0.16957094913849718  0.2714678475867346  0.06543881202219509  1.0000
  C   C2        1.0  0.830429050240256  0.7285321522431215  0.9345611879461844  1.0000
  C   C3        1.0  0.2992218002012322  0.15333200633233365  0.08801908540770781  1.0000
  C   C4        1.0  0.7007781991775208  0.8466679934975225  0.9119809145606715  1.0000
  C   C5        1.0  0.40417161070305574  0.37129191052914834  0.13437123752116567  1.0000
  C   C6        1.0  0.5958283899342454  0.6287080893013579  0.8656287623754697  1.0000
  C   C7        1.0  0.6501007712596629  0.5973871864540318  0.29468362653207525  1.0000
  C   C8        1.0  0.3498992281190901  0.4026128133758244  0.705316373436304  1.0000
  C   C9        1.0  0.30168556099159904  0.21008527802869278  0.27066096578880827  1.0000
  C   C10       1.0  0.698314439645702  0.7899147218018135  0.7293390341078272  1.0000
  C   C11       1.0  0.5770746824187946  0.14474103221976548  0.17017874862142857  1.0000
  C   C12       1.0  0.4229253169599585  0.8552589676100906  0.8298212513469507  1.0000
  C   C13       1.0  0.621416911993118  0.4704004890119908  0.23890062231789638  1.0000
  C   C14       1.0  0.37858308864418294  0.5295995108185156  0.7610993775787389  1.0000
  C   C15       1.0  0.24573348861994654  0.9202840439568607  0.18363065089856423  1.0000
  C   C16       1.0  0.7542665120173546  0.07971595587364573  0.8163693489980712  1.0000
  C   C17       1.0  0.39939852381588975  0.21517588568636475  0.168452570272311  1.0000
  C   C18       1.0  0.6006014754636789  0.7848241151706141  0.831547429696727  1.0000
  C   C19       1.0  0.7233640286825103  0.7091351861651148  0.24805452936632655  1.0000
  C   C20       1.0  0.27663597069624274  0.2908648136647413  0.7519454706020529  1.0000
  C   C21       1.0  0.44068757078525334  0.479536512174261  0.20830164218884648  1.0000
  C   C22       1.0  0.5593124298520478  0.5204634876562454  0.791698357707789  1.0000
  C   C23       1.0  0.10900839569084961  0.5248040692259981  0.131031537766265  1.0000
  C   C24       1.0  0.8909916049464516  0.47519593060450827  0.8689684621303703  1.0000
  C   C25       1.0  0.5950156970175228  0.6087766813719562  0.3942688739799375  1.0000
  C   C26       1.0  0.40498430362525434  0.3912233184602311  0.60573112664367  1.0000
  C   C27       1.0  0.18786331517004526  0.031596751884442595  0.11251890856498928  1.0000
  C   C28       1.0  0.8121366842087078  0.9684032479454134  0.8874810914033902  1.0000
  C   C29       1.0  0.2249925942927672  0.4027111075205356  0.09819084983494633  1.0000
  C   C30       1.0  0.7750074050859858  0.5972888923093205  0.901809150133433  1.0000
  C   C31       1.0  0.742303483276596  0.8281358535873418  0.30055864815637046  1.0000
  C   C32       1.0  0.2576965172615207  0.1718641472702874  0.6994413517409237  1.0000
  C   C33       1.0  0.9957573940298133  0.22171357917112727  0.06633211401891682  1.0000
  C   C34       1.0  0.004242605348939615  0.7782864206587289  0.9336678859494626  1.0000
  C   C35       1.0  0.005918744406681231  0.09650268556703373  0.1343952575417343  1.0000
  C   C36       1.0  0.9940812562306199  0.9034973142634726  0.865604742354901  1.0000
  C   C37       1.0  0.3139840907009554  0.07343157786579729  0.3259855260659251  1.0000
  C   C38       1.0  0.6860159099363456  0.926568421964709  0.6740144738307103  1.0000
  C   C39       1.0  0.6856528228546486  0.8385137176632563  0.3997048713458839  1.0000
  C   C40       1.0  0.31434717768346826  0.1614862831943725  0.6002951285514102  1.0000
  C   C41       1.0  0.2159689583386726  0.9569241446769187  0.2920312715288287  1.0000
  C   C42       1.0  0.7840310410455564  0.043075855154618585  0.7079687291665229  1.0000
  C   C43       1.0  0.6110429748959899  0.7282502507376059  0.4466321786696843  1.0000
  C   C44       1.0  0.38895702448276315  0.2717497490922502  0.5533678212986951  1.0000
  C   C45       1.0  0.9886975246854818  0.43922018318817735  0.46720690892871963  1.0000
  C   C46       1.0  0.011302474693271248  0.5607798166416789  0.5327930910396598  1.0000
  C   C47       1.0  0.8844139228678592  0.33104076628964646  0.518819086915098  1.0000
  C   C48       1.0  0.11558607641170958  0.6689592345673324  0.48118091305394006  1.0000
  C   C49       1.0  0.8567085660771039  0.21127866357028463  0.4527672405248109  1.0000
  C   C50       1.0  0.14329143330164915  0.7887213362595716  0.5472327594435685  1.0000
  O   O1        1.0  0.40707566805761264  0.12247981459288627  0.999718127481336  1.0000
  O   O2        1.0  0.5929243325796885  0.87752018523762  0.0002818724152993265  1.0000
  O   O3        1.0  0.5313828592025127  0.3808285270654297  0.054631448054768675  1.0000
  O   O4        1.0  0.4686171401762404  0.6191714727644265  0.9453685519136107  1.0000
  O   O5        1.0  0.23027284059920466  0.3695955459551137  0.9941441226092667  1.0000
  O   O6        1.0  0.7697271587795484  0.6304044538747424  0.005855877359112863  1.0000
