data_image0
_chemical_formula_structural       H60C48N28O28
_chemical_formula_sum              "H60 C48 N28 O28"
_cell_length_a       12.496923136565801
_cell_length_b       6.571623454150391
_cell_length_c       18.560879770176463
_cell_angle_alpha    90.0
_cell_angle_beta     107.69931026845772
_cell_angle_gamma    90.0

_space_group_name_H-M_alt    "P 1"
_space_group_IT_number       1

loop_
  _space_group_symop_operation_xyz
  'x, y, z'

loop_
  _atom_site_type_symbol
  _atom_site_label
  _atom_site_symmetry_multiplicity
  _atom_site_fract_x
  _atom_site_fract_y
  _atom_site_fract_z
  _atom_site_occupancy
  H   H1        1.0  0.23866908296998296  0.5425443354865728  0.08771324842412812  1.0000
  H   H2        1.0  0.7613309175172853  0.04254433504150704  0.41228675163577094  1.0000
  H   H3        1.0  0.7613309170660524  0.4574556654035588  0.9122867512668266  1.0000
  H   H4        1.0  0.23866908252343197  0.9574556643269305  0.5877132485949014  1.0000
  H   H5        1.0  0.9927748638443452  0.025130423426147297  0.20074963453707775  1.0000
  H   H6        1.0  0.007225136642923084  0.5251304238712131  0.2992503655228213  1.0000
  H   H7        1.0  0.007225136196372122  0.9748695759422903  0.7992503656935945  1.0000
  H   H8        1.0  0.992774863393112  0.47486957549722447  0.7007496341681334  1.0000
  H   H9        1.0  0.7584422111294498  0.5109543651469166  0.11324495518287168  1.0000
  H   H10       1.0  0.24155778935781852  0.010954366223544823  0.38675504487702744  1.0000
  H   H11       1.0  0.24155778890658547  0.489045634221521  0.8867550445080831  1.0000
  H   H12       1.0  0.7584422106828989  0.9890456346665868  0.6132449553536449  1.0000
  H   H13       1.0  0.5647987706072652  0.47943221062219704  0.19658243134942038  1.0000
  H   H14       1.0  0.4352012290400599  0.9794322110672629  0.303417568541549  1.0000
  H   H15       1.0  0.4352012294334521  0.5205677902679345  0.8034175688812518  1.0000
  H   H16       1.0  0.5647987710006573  0.020567789822868752  0.6965824316891231  1.0000
  H   H17       1.0  0.6327211533797701  0.7042879970666807  0.177650366555912  1.0000
  H   H18       1.0  0.3672788462675551  0.2042879981433089  0.32234963333505745  1.0000
  H   H19       1.0  0.36727884665626515  0.2957120023017569  0.8223496331350427  1.0000
  H   H20       1.0  0.6327211537731622  0.7957120027468227  0.6776503668956148  1.0000
  H   H21       1.0  0.5677537438996201  0.8614457202998544  0.055250672847211295  1.0000
  H   H22       1.0  0.4322462565876481  0.36144571985478857  0.44474932721268773  1.0000
  H   H23       1.0  0.4322462561364151  0.13855428059027722  0.9447493268437435  1.0000
  H   H24       1.0  0.5677537434530692  0.6385542795136491  0.5552506730179845  1.0000
  H   H25       1.0  0.4509393322166915  0.7545295244919135  0.9834896112442097  1.0000
  H   H26       1.0  0.5490606673727927  0.25452952404684764  0.5165103886175181  1.0000
  H   H27       1.0  0.5490606678240257  0.24547047639821812  0.01651038898646246  1.0000
  H   H28       1.0  0.45093933266324243  0.7454704753215898  0.48348961107343663  1.0000
  H   H29       1.0  0.26626862554414726  0.7824245448440345  0.9940342243721731  1.0000
  H   H30       1.0  0.733731374045337  0.2824245459206626  0.5059657754895546  1.0000
  H   H31       1.0  0.7337313744918879  0.21757545452440324  0.005965775318781503  1.0000
  H   H32       1.0  0.26626862599538037  0.7175754549694691  0.4940342247411176  1.0000
  H   H33       1.0  0.24321733073731572  0.9045399057740909  0.0739580666629134  1.0000
  H   H34       1.0  0.7567826689100093  0.4045399053290251  0.426041933228056  1.0000
  H   H35       1.0  0.7567826692987194  0.09546009359434668  0.9260419330280413  1.0000
  H   H36       1.0  0.24321733113070787  0.5954600940394125  0.5739580670026163  1.0000
  H   H37       1.0  0.3091799755768663  0.7452622588877746  0.19793478106024784  1.0000
  H   H38       1.0  0.6908200249104021  0.24526225996440285  0.3020652189996512  1.0000
  H   H39       1.0  0.6908200244591689  0.25473774048066294  0.8020652186307069  1.0000
  H   H40       1.0  0.30917997513031537  0.7547377409257288  0.697934781231021  1.0000
  H   H41       1.0  0.37955716375296406  0.5021584959977958  0.2084660858338288  1.0000
  H   H42       1.0  0.6204428358943611  0.002158495552730034  0.29153391405714063  1.0000
  H   H43       1.0  0.6204428362877532  0.4978415048923358  0.7915339143968435  1.0000
  H   H44       1.0  0.3795571641416741  0.9978415038157076  0.708466085633814  1.0000
  H   H45       1.0  0.4090919037760387  0.335803404652816  0.09932958953202181  1.0000
  H   H46       1.0  0.5909080958759685  0.8358034050978819  0.40067041089866523  1.0000
  H   H47       1.0  0.5909080962646786  0.6641965962373156  0.9006704106986504  1.0000
  H   H48       1.0  0.40909190416474883  0.1641965957922498  0.5993295893320071  1.0000
  H   H49       1.0  0.3622240139201497  0.45466956694132316  0.00859396743022064  1.0000
  H   H50       1.0  0.6377759865671185  0.9546695673863889  0.49140603262967847  1.0000
  H   H51       1.0  0.6377759861205676  0.5453304324271144  0.9914060328004516  1.0000
  H   H52       1.0  0.36222401346891664  0.04533043198204867  0.5085939670612762  1.0000
  H   H53       1.0  0.5381090516125799  0.02548947625631361  0.16242139923421678  1.0000
  H   H54       1.0  0.46189094887468823  0.5254894767013795  0.33757860082568236  1.0000
  H   H55       1.0  0.4618909484234552  0.9745105231121239  0.8375786004567379  1.0000
  H   H56       1.0  0.538109051166029  0.4745105226670582  0.6624213994049899  1.0000
  H   H57       1.0  0.39900920746427393  0.04191464893291137  0.17118046249539282  1.0000
  H   H58       1.0  0.6009907921830512  0.5419146493779772  0.3288195373955766  1.0000
  H   H59       1.0  0.6009907925717614  0.9580853504355262  0.8288195371955619  1.0000
  H   H60       1.0  0.39900920785766614  0.4580853499904604  0.6711804628350956  1.0000
  C   C1        1.0  0.03233125578862499  0.46225734952623493  0.10512530447362707  1.0000
  C   C2        1.0  0.9676687446986433  0.9622573499713006  0.39487469558627203  1.0000
  C   C3        1.0  0.9676687442520923  0.5377426498422027  0.8948746957570453  1.0000
  C   C4        1.0  0.03233125534207403  0.03774265091883091  0.6051253046444002  1.0000
  C   C5        1.0  0.052811976315149896  0.2678812309138297  0.1465125595149095  1.0000
  C   C6        1.0  0.9471880233321753  0.7678812313588955  0.35348744037605995  1.0000
  C   C7        1.0  0.9471880237255674  0.7321187684546079  0.8534874407157628  1.0000
  C   C8        1.0  0.05281197670385998  0.23211876800954206  0.6465125593148947  1.0000
  C   C9        1.0  0.9728206895458724  0.16967492397875944  0.17132417188479185  1.0000
  C   C10       1.0  0.02717931010145282  0.6696749229021313  0.3286758280061776  1.0000
  C   C11       1.0  0.027179310490162915  0.8303250769113721  0.8286758278061628  1.0000
  C   C12       1.0  0.9728206899392645  0.3303250764663063  0.6713241722244947  1.0000
  C   C13       1.0  0.866390219581889  0.25450236333058857  0.15699596109988634  1.0000
  C   C14       1.0  0.1336097809053793  0.7545023637756544  0.34300403896001275  1.0000
  C   C15       1.0  0.13360978045882835  0.745497636037849  0.8430040391307859  1.0000
  C   C16       1.0  0.866390219130656  0.24549763559278323  0.6569959607309418  1.0000
  C   C17       1.0  0.8407811703696003  0.44366328051839676  0.12151632099560757  1.0000
  C   C18       1.0  0.15921882927772468  0.9436632809634625  0.3784836788953619  1.0000
  C   C19       1.0  0.15921882966643477  0.5563367188500409  0.8784836786953472  1.0000
  C   C20       1.0  0.8407811707629926  0.05633671992666905  0.6215163213353103  1.0000
  C   C21       1.0  0.9203373805319667  0.5461053490113542  0.09793599921276086  1.0000
  C   C22       1.0  0.07966261995530152  0.046105348566288416  0.4020640008471382  1.0000
  C   C23       1.0  0.07966261950875056  0.4538946503570834  0.9020640010179113  1.0000
  C   C24       1.0  0.9203373800807336  0.9538946508021492  0.5979359988438164  1.0000
  C   C25       1.0  0.551903318572921  0.6253856796077392  0.16647882239247985  1.0000
  C   C26       1.0  0.44809668191434726  0.12538567916267335  0.33352117766741923  1.0000
  C   C27       1.0  0.44809668146311427  0.37461432128239247  0.8335211772984749  1.0000
  C   C28       1.0  0.55190331812637  0.8746143202057642  0.6664788225632531  1.0000
  C   C29       1.0  0.4867945720896897  0.7836392507771562  0.044403419606542184  1.0000
  C   C30       1.0  0.5132054283975785  0.2836392518537845  0.4555965804533569  1.0000
  C   C31       1.0  0.5132054279510275  0.2163607485912813  0.9555965806241301  1.0000
  C   C32       1.0  0.4867945716384567  0.716360749036347  0.5444034192375977  1.0000
  C   C33       1.0  0.3026619081912342  0.814331188835874  0.054509325629181524  1.0000
  C   C34       1.0  0.697338091456091  0.31433118839080815  0.4454906742617879  1.0000
  C   C35       1.0  0.6973380918448011  0.18566881205425761  0.9454906740617731  1.0000
  C   C36       1.0  0.3026619085846263  0.6856688109776293  0.5545093259688842  1.0000
  C   C37       1.0  0.3692410482824041  0.6508708692520464  0.1803788581020384  1.0000
  C   C38       1.0  0.630758951364921  0.15087086880698056  0.31962114178893103  1.0000
  C   C39       1.0  0.6307589517536311  0.34912913011639124  0.8196211415889163  1.0000
  C   C40       1.0  0.3692410486757963  0.8491291305614571  0.6803788584417413  1.0000
  C   C41       1.0  0.39945770628301613  0.4815198104513284  0.06939926968049676  1.0000
  C   C42       1.0  0.6005422942042521  0.9815198093747002  0.4306007303794024  1.0000
  C   C43       1.0  0.6005422937577012  0.5184801904388032  0.9306007305501756  1.0000
  C   C44       1.0  0.3994577058317831  0.018480189993737392  0.5693992693115524  1.0000
  C   C45       1.0  0.4573149437996958  0.9475276304924913  0.15190552764750967  1.0000
  C   C46       1.0  0.5426850558476293  0.44752763156911946  0.34809447224345974  1.0000
  C   C47       1.0  0.5426850562410215  0.052472368875946356  0.8480944725831625  1.0000
  C   C48       1.0  0.4573149441884059  0.5524723693210122  0.651905527447495  1.0000
  N   N1        1.0  0.8871872214542029  0.746316593489923  0.06433411693067916  1.0000
  N   N2        1.0  0.11281277819312228  0.24631659304485712  0.4356658829602903  1.0000
  N   N3        1.0  0.11281277858183239  0.2536834058785147  0.9356658827602756  1.0000
  N   N4        1.0  0.8871872218475949  0.7536834063235806  0.5643341172703819  1.0000
  N   N5        1.0  0.16002380994234483  0.16711874130682153  0.16320837924712786  1.0000
  N   N6        1.0  0.8399761897049802  0.6671187417518872  0.3367916206438416  1.0000
  N   N7        1.0  0.8399761900983724  0.83288125958331  0.8367916209835444  1.0000
  N   N8        1.0  0.16002381033105492  0.3328812591382443  0.663208379047113  1.0000
  N   N9        1.0  0.7803794127147122  0.14575882606223337  0.1776345298759119  1.0000
  N   N10       1.0  0.21962058693261283  0.6457588265072992  0.3223654700150575  1.0000
  N   N11       1.0  0.21962058732600498  0.8542411733062043  0.8223654703547604  1.0000
  N   N12       1.0  0.7803794131034223  0.3542411743828324  0.6776345296758972  1.0000
  N   N13       1.0  0.505540179677262  0.5866759343256446  0.08456394353195311  1.0000
  N   N14       1.0  0.4944598208100064  0.08667593388057879  0.415436056527946  1.0000
  N   N15       1.0  0.49445982036345537  0.413324065042793  0.9154360566987192  1.0000
  N   N16       1.0  0.5055401792260288  0.9133240654878588  0.5845639431630087  1.0000
  N   N17       1.0  0.40967383418021863  0.9146809295964329  0.06982372991069744  1.0000
  N   N18       1.0  0.5903261654671064  0.41468092915136706  0.43017626998027203  1.0000
  N   N19       1.0  0.5903261658558165  0.08531907129369876  0.9301762697802572  1.0000
  N   N20       1.0  0.40967383457361084  0.5853190717387645  0.5698237302504002  1.0000
  N   N21       1.0  0.31802667066844104  0.6110118980514719  0.09597756976866241  1.0000
  N   N22       1.0  0.6819733298188272  0.11101189760640612  0.4040224302912367  1.0000
  N   N23       1.0  0.6819733293722763  0.38898810131696565  0.9040224304620098  1.0000
  N   N24       1.0  0.31802667021720804  0.8889881017620315  0.5959775693997179  1.0000
  N   N25       1.0  0.47572454720024593  0.7536174865393714  0.19430125005382423  1.0000
  N   N26       1.0  0.5242754532870224  0.25361748609430573  0.3056987500060749  1.0000
  N   N27       1.0  0.5242754528404715  0.24638251282906606  0.8056987501768481  1.0000
  N   N28       1.0  0.4757245467490129  0.7463825132741319  0.6943012496848798  1.0000
  O   O1        1.0  0.10116438608396389  0.549836839436983  0.07896185162259502  1.0000
  O   O2        1.0  0.8988356135680432  0.04983683899191724  0.421038148808092  1.0000
  O   O3        1.0  0.8988356139567533  0.45016315993145456  0.9210381486080773  1.0000
  O   O4        1.0  0.10116438647267398  0.9501631603765204  0.5789618514225803  1.0000
  O   O5        1.0  0.957539159005222  0.8549507255245461  0.0482542595134597  1.0000
  O   O6        1.0  0.04246084064210315  0.3549507266011743  0.4517457403775098  1.0000
  O   O7        1.0  0.04246084103081323  0.1450492738438915  0.9517457401774951  1.0000
  O   O8        1.0  0.957539159398614  0.6450492742889572  0.5482542598531625  1.0000
  O   O9        1.0  0.7875702430070798  0.8010919168953838  0.054397030693814796  1.0000
  O   O10       1.0  0.21242975664024544  0.3010919164503181  0.44560296919715464  1.0000
  O   O11       1.0  0.21242975702895553  0.19890808399474771  0.9456029689971398  1.0000
  O   O12       1.0  0.7875702434004719  0.6989080829181195  0.5543970310335176  1.0000
  O   O13       1.0  0.6826567590047383  0.21549213978558426  0.1550764518788067  1.0000
  O   O14       1.0  0.31734324148252985  0.71549214023065  0.34492354818109244  1.0000
  O   O15       1.0  0.3173432410359789  0.7845078595828533  0.8449235483518656  1.0000
  O   O16       1.0  0.6826567585581875  0.28450785913778753  0.6550764520495799  1.0000
  O   O17       1.0  0.8058049248209144  0.98710966707977  0.21597056182922955  1.0000
  O   O18       1.0  0.19419507566635397  0.4871096666347042  0.28402943823066956  1.0000
  O   O19       1.0  0.19419507521980303  0.01289033381036159  0.7840294384014428  1.0000
  O   O20       1.0  0.8058049243696812  0.5128903327337334  0.7159705614602851  1.0000
  O   O21       1.0  0.17930026675182303  0.01844418671362697  0.20734580682477777  1.0000
  O   O22       1.0  0.820699732895502  0.5184441871586928  0.29265419306619167  1.0000
  O   O23       1.0  0.8206997332888942  0.9815558126548106  0.7926541934058946  1.0000
  O   O24       1.0  0.1793002671405331  0.4815558137314388  0.707345806624763  1.0000
  O   O25       1.0  0.2304273404643115  0.23017278919787973  0.13306504172971773  1.0000
  O   O26       1.0  0.7695726591830138  0.7301727896429455  0.3669349581612517  1.0000
  O   O27       1.0  0.7695726595717237  0.7698272116922518  0.866934957961237  1.0000
  O   O28       1.0  0.23042734085770367  0.26982721124718606  0.6330650420694205  1.0000
