data_image0
_chemical_formula_structural       H28C48N12S2
_chemical_formula_sum              "H28 C48 N12 S2"
_cell_length_a       7.063548428750732
_cell_length_b       7.889831940780096
_cell_length_c       18.7221227598316
_cell_angle_alpha    84.591320980509
_cell_angle_beta     81.55602499094859
_cell_angle_gamma    70.83007858309551

_space_group_name_H-M_alt    "P 1"
_space_group_IT_number       1

loop_
  _space_group_symop_operation_xyz
  'x, y, z'

loop_
  _atom_site_type_symbol
  _atom_site_label
  _atom_site_symmetry_multiplicity
  _atom_site_fract_x
  _atom_site_fract_y
  _atom_site_fract_z
  _atom_site_occupancy
  H   H1        1.0  0.3381064566571967  0.7382951207512684  0.8443311598124392  1.0000
  H   H2        1.0  0.6618935422043333  0.2617048790030643  0.15566884048676335  1.0000
  H   H3        1.0  0.7821460605911726  0.4768280707001189  0.5914335318910527  1.0000
  H   H4        1.0  0.217853939703529  0.5231719290485649  0.40856646832340254  1.0000
  H   H5        1.0  0.7432262234387379  0.7962539679248606  0.5536354788735629  1.0000
  H   H6        1.0  0.2567737768559636  0.20374603182382314  0.4463645213408924  1.0000
  H   H7        1.0  0.5561985761106809  0.0368441217396281  0.6396485454069081  1.0000
  H   H8        1.0  0.4438014241840208  0.9631558780090557  0.36035145480754727  1.0000
  H   H9        1.0  0.4079869947388912  0.9560943270660791  0.7618714398459736  1.0000
  H   H10       1.0  0.5920130055419855  0.04390567267948456  0.23812855983527464  1.0000
  H   H11       1.0  0.34150070312053565  0.5698754762801412  0.9517251174399225  1.0000
  H   H12       1.0  0.6584992957271697  0.4301245234710712  0.04827488232607293  1.0000
  H   H13       1.0  0.4339565218075294  0.27270600868940703  0.018353907062439338  1.0000
  H   H14       1.0  0.5660434765775868  0.727293992408404  0.9816460932085268  1.0000
  H   H15       1.0  0.6235585453971596  0.9942505886294822  0.950251843589293  1.0000
  H   H16       1.0  0.376441454897542  0.0057494111192015925  0.04974815662516233  1.0000
  H   H17       1.0  0.7009322266782784  0.019596945698424156  0.8176002213443647  1.0000
  H   H18       1.0  0.2990677731261843  0.980403055390618  0.18239977830864731  1.0000
  H   H19       1.0  0.968467967669938  0.9946221507043855  0.7312080294166236  1.0000
  H   H20       1.0  0.03153203261093864  0.005377849041178136  0.2687919702646247  1.0000
  H   H21       1.0  0.2682824890315874  0.43779716696568066  0.5925495647824836  1.0000
  H   H22       1.0  0.7317175112631142  0.5622028327830032  0.40745043543197174  1.0000
  H   H23       1.0  0.09883637957227638  0.3422018017010258  0.907560529291383  1.0000
  H   H24       1.0  0.9011636192892537  0.6577981980533066  0.0924394710078194  1.0000
  H   H25       1.0  0.0026196781878881493  0.2719886523006386  0.9948309158292427  1.0000
  H   H26       1.0  0.9973803216303998  0.7280113487915237  0.00516908435697637  1.0000
  H   H27       1.0  0.8571872883114011  0.30964317189460144  0.9206537203919968  1.0000
  H   H28       1.0  0.14281271149306174  0.6903568291944407  0.07934627926101512  1.0000
  C   C1        1.0  0.5689735002539501  0.306722699332158  0.8097954154897972  1.0000
  C   C2        1.0  0.4310264995505127  0.6932773017568841  0.19020458416321492  1.0000
  C   C3        1.0  0.4677440934876247  0.46383075075171626  0.8475965939511134  1.0000
  C   C4        1.0  0.532255906793252  0.5361692489938473  0.1524034057301348  1.0000
  C   C5        1.0  0.5056913754510961  0.6723907140739387  0.745069884883328  1.0000
  C   C6        1.0  0.4943086248297805  0.32760928567162506  0.25493011479792005  1.0000
  C   C7        1.0  0.6106597088401328  0.5374403352012594  0.695792957329333  1.0000
  C   C8        1.0  0.3893402909781549  0.4625596658909028  0.30420704285688605  1.0000
  C   C9        1.0  0.6991557543630696  0.5832218601032109  0.6281399235279024  1.0000
  C   C10       1.0  0.3008442459316318  0.41677813964547306  0.37186007668655296  1.0000
  C   C11       1.0  0.6782456323456652  0.7627913309312442  0.6073607346651373  1.0000
  C   C12       1.0  0.3217543674726225  0.23720867016091823  0.39263926552108175  1.0000
  C   C13       1.0  0.5735692028034898  0.8966365639482203  0.6555979338852278  1.0000
  C   C14       1.0  0.426430797000973  0.10336343714082191  0.3444020657677842  1.0000
  C   C15       1.0  0.49081226673330747  0.8516486659204814  0.7242309473691612  1.0000
  C   C16       1.0  0.5091877335475692  0.1483513338250824  0.27576905231208715  1.0000
  C   C17       1.0  0.4204308679654015  0.44811324627119703  0.9228020159271468  1.0000
  C   C18       1.0  0.5795691323154752  0.5518867534743666  0.07719798375410143  1.0000
  C   C19       1.0  0.4739096804313971  0.2805324503450411  0.9599380592526502  1.0000
  C   C20       1.0  0.5260903198494795  0.7194675494005226  0.04006194042859799  1.0000
  C   C21       1.0  0.5774167303927179  0.12584084311286414  0.9223305078211902  1.0000
  C   C22       1.0  0.42258326990198347  0.8741591566358197  0.07766949239326512  1.0000
  C   C23       1.0  0.6241043274294251  0.14024693089315085  0.847351995746507  1.0000
  C   C24       1.0  0.37589567285145137  0.859753068852413  0.15264800393474123  1.0000
  C   C25       1.0  0.09992873416853092  0.38181018960923224  0.7263207284501089  1.0000
  C   C26       1.0  0.9000712661261707  0.6181898101394516  0.2736792717643463  1.0000
  C   C27       1.0  0.10765713281263725  0.5498273829824949  0.6932949667739191  1.0000
  C   C28       1.0  0.8923428674820644  0.4501726167661889  0.3067050334405361  1.0000
  C   C29       1.0  0.024070775330299516  0.7070632192725766  0.7332877733977369  1.0000
  C   C30       1.0  0.975929224964402  0.2929367804761073  0.26671222681671836  1.0000
  C   C31       1.0  0.9359744468282084  0.693784306634308  0.806257184736107  1.0000
  C   C32       1.0  0.0640255534664931  0.3062156931143758  0.19374281547834843  1.0000
  C   C33       1.0  0.029342905868407883  0.8729560486377222  0.7011036070726628  1.0000
  C   C34       1.0  0.9706570944262937  0.12704395111096167  0.2988963931417924  1.0000
  C   C35       1.0  0.11868732295270533  0.8833181574725936  0.6296676096026793  1.0000
  C   C36       1.0  0.8813126759088249  0.11668184228173883  0.3703323906965231  1.0000
  C   C37       1.0  0.11941072680096797  0.052884387619932166  0.5964929080679888  1.0000
  C   C38       1.0  0.8805892734937335  0.9471156121287517  0.4035070921464664  1.0000
  C   C39       1.0  0.20720795595157843  0.7252042312098682  0.5904933860470687  1.0000
  C   C40       1.0  0.7927920443431231  0.2747957685388156  0.4095066141673866  1.0000
  C   C41       1.0  0.3065168924794083  0.7340682828168104  0.5190610490788795  1.0000
  C   C42       1.0  0.6934831063821218  0.2659317169375221  0.48093895122032293  1.0000
  C   C43       1.0  0.20028597914399207  0.5594703601199816  0.6223786465592777  1.0000
  C   C44       1.0  0.7997140211368847  0.44052963962558206  0.37762135312197054  1.0000
  C   C45       1.0  0.10434702042703518  0.07512906588780066  0.9186880042494752  1.0000
  C   C46       1.0  0.8956529784344948  0.9248709338665319  0.08131199604972736  1.0000
  C   C47       1.0  0.01026050214440152  0.2603937945218772  0.9364184797450398  1.0000
  C   C48       1.0  0.9897394981364751  0.7396062052236865  0.06358151993620856  1.0000
  N   N1        1.0  0.4124694950191364  0.632132331531783  0.8118463782514554  1.0000
  N   N2        1.0  0.587530505275565  0.36786766821690076  0.18815362196299984  1.0000
  N   N3        1.0  0.08791286757848953  0.24650484580146684  0.7542823887953745  1.0000
  N   N4        1.0  0.9120871327162119  0.753495153947217  0.24571761141908083  1.0000
  N   N5        1.0  0.8643880169497267  0.6804360968357143  0.8659716535942791  1.0000
  N   N6        1.0  0.13561198334497493  0.3195639029129696  0.13402834662017607  1.0000
  N   N7        1.0  0.11598078674737503  0.19229126723034326  0.5684542474748252  1.0000
  N   N8        1.0  0.8840192135473265  0.8077087325183405  0.43154575273963014  1.0000
  N   N9        1.0  0.3883627320011133  0.7405573737155767  0.4605028273387723  1.0000
  N   N10       1.0  0.6116372682935882  0.25944262603310697  0.5394971728756829  1.0000
  N   N11       1.0  0.18033011084136075  0.9252742498045164  0.9047785852189906  1.0000
  N   N12       1.0  0.8196698889631021  0.07472575128452563  0.09522141443402135  1.0000
  S   S1        1.0  0.6124063102773208  0.3141469452199849  0.7146455813894983  1.0000
  S   S2        1.0  0.38759369000355565  0.6858530545255789  0.28535441829175  1.0000
