data_image0
_chemical_formula_structural       H38C32N6O4S2Cl4
_chemical_formula_sum              "H38 C32 N6 O4 S2 Cl4"
_cell_length_a       6.900919338873217
_cell_length_b       9.921827981542425
_cell_length_c       13.521247908815367
_cell_angle_alpha    84.3120071830411
_cell_angle_beta     76.0284956471128
_cell_angle_gamma    72.77542505295456

_space_group_name_H-M_alt    "P 1"
_space_group_IT_number       1

loop_
  _space_group_symop_operation_xyz
  'x, y, z'

loop_
  _atom_site_type_symbol
  _atom_site_label
  _atom_site_symmetry_multiplicity
  _atom_site_fract_x
  _atom_site_fract_y
  _atom_site_fract_z
  _atom_site_occupancy
  H   H1        1.0  0.7420917498369752  0.4827028721155127  0.8301053902597813  1.0000
  H   H2        1.0  0.25790824963259285  0.517297127957782  0.16989460993773012  1.0000
  H   H3        1.0  0.49009129239777555  0.7148006333837793  0.5444403409236839  1.0000
  H   H4        1.0  0.5099087085252787  0.2851993666894486  0.4555596592643406  1.0000
  H   H5        1.0  0.5568624662954956  0.7889900597203512  0.6879801292366089  1.0000
  H   H6        1.0  0.44313753394960653  0.21100993934933593  0.3120198701846203  1.0000
  H   H7        1.0  0.7874758884346228  0.6915102272119977  0.7273353132141976  1.0000
  H   H8        1.0  0.21252411103494526  0.3084897728612971  0.2726646869833137  1.0000
  H   H9        1.0  0.2778554532652489  0.8527811154048556  0.8538569562142949  1.0000
  H   H10       1.0  0.7221445462043193  0.14721888466843916  0.1461430439832164  1.0000
  H   H11       1.0  0.3560234128691737  0.755277283131689  0.9617885958396832  1.0000
  H   H12       1.0  0.6439765866003945  0.24472271694160577  0.03821140435782806  1.0000
  H   H13       1.0  0.4983100393063455  0.3672217810394918  0.826869937735288  1.0000
  H   H14       1.0  0.5016899604841653  0.6327782190846422  0.17313006169994907  1.0000
  H   H15       1.0  0.27491104420778245  0.4004770471372483  0.7663293200938288  1.0000
  H   H16       1.0  0.7250889552617859  0.5995229529360464  0.2336706801036825  1.0000
  H   H17       1.0  0.689779144229613  0.5331307409406874  0.40367600633247186  1.0000
  H   H18       1.0  0.3102208555608978  0.4668692591834466  0.5963239931027653  1.0000
  H   H19       1.0  0.044861214106655015  0.5548346862228254  0.910384867279957  1.0000
  H   H20       1.0  0.9551387872709907  0.4451653127959556  0.08961513289405941  1.0000
  H   H21       1.0  0.26782908270009204  0.5196052227926002  0.972547083699471  1.0000
  H   H22       1.0  0.7321709167694761  0.4803947772806945  0.027452916498040412  1.0000
  H   H23       1.0  0.6950360203052174  0.7436978401334353  0.9978007882127854  1.0000
  H   H24       1.0  0.3049639791643504  0.25630215993985944  0.002199211984726023  1.0000
  H   H25       1.0  0.7296976569467566  0.15167711312508886  0.75692832690676  1.0000
  H   H26       1.0  0.27030234297740285  0.848322885893759  0.24307167327674342  1.0000
  H   H27       1.0  0.9582502369322288  0.8698669821168369  0.9927367792687536  1.0000
  H   H28       1.0  0.04174976253733922  0.13013301795645785  0.007263220928757696  1.0000
  H   H29       1.0  0.9787197855265632  0.07366576263156693  0.8685659913989535  1.0000
  H   H30       1.0  0.02128021394300482  0.9263342374417277  0.13143400879855788  1.0000
  H   H31       1.0  0.7268368170000011  0.08477357349277599  0.40943210155811194  1.0000
  H   H32       1.0  0.27316318246956706  0.9152264265805187  0.5905678986393994  1.0000
  H   H33       1.0  0.7377085167621775  0.14873806100408613  0.5290817339686978  1.0000
  H   H34       1.0  0.2622914830283331  0.851261939120048  0.4709182654665391  1.0000
  H   H35       1.0  0.07423945348410227  0.15518977255045008  0.5484341843561457  1.0000
  H   H36       1.0  0.9257605474389521  0.8448102275227778  0.4515658158318788  1.0000
  H   H37       1.0  0.29100113623748464  0.09481375800780993  0.4430485694973653  1.0000
  H   H38       1.0  0.7089988640076177  0.9051862410618772  0.5569514299238639  1.0000
  C   C1        1.0  0.5073905397747247  0.6516810678094204  0.8216085192835086  1.0000
  C   C2        1.0  0.4926094601494348  0.34831893120942736  0.1783914808999948  1.0000
  C   C3        1.0  0.6373287940346809  0.6857025392424152  0.7166833576257389  1.0000
  C   C4        1.0  0.3626712068883734  0.3142974608308128  0.2833166425622855  1.0000
  C   C5        1.0  0.32968375701737973  0.5938023809471776  0.8112637420307092  1.0000
  C   C6        1.0  0.6703162424521883  0.4061976191261171  0.18873625816680217  1.0000
  C   C7        1.0  0.41265678082132334  0.7888100695478282  0.8829299383060938  1.0000
  C   C8        1.0  0.5873432186482449  0.21118993052546653  0.11707006189141744  1.0000
  C   C9        1.0  0.5621691871385014  0.873255326164712  0.8807101485446116  1.0000
  C   C10       1.0  0.4378308126520092  0.1267446739594221  0.11928985089062547  1.0000
  C   C11       1.0  0.8149868666239293  0.4537906501222875  0.6210217098602545  1.0000
  C   C12       1.0  0.1850131328456388  0.5462093499510072  0.378978290337257  1.0000
  C   C13       1.0  0.35108226035633344  0.4382601629940376  0.815255377332441  1.0000
  C   C14       1.0  0.6489177394341773  0.5617398371300965  0.18474462210279605  1.0000
  C   C15       1.0  0.7127220960906941  0.526329495178767  0.4808423487366049  1.0000
  C   C16       1.0  0.2872779048323603  0.4736705048944609  0.5191576514514195  1.0000
  C   C17       1.0  0.5730602824917747  0.9914576811176393  0.815381277998582  1.0000
  C   C18       1.0  0.42693971843127976  0.008542318955588444  0.18461872218944242  1.0000
  C   C19       1.0  0.21229378424688353  0.5301756386360108  0.9024386552086735  1.0000
  C   C20       1.0  0.7877062152226845  0.46982436143728395  0.09756134498883783  1.0000
  C   C21       1.0  0.702975055837115  0.8333112768919192  0.9450996761222097  1.0000
  C   C22       1.0  0.29702494508593946  0.16668872318130887  0.054900324065814826  1.0000
  C   C23       1.0  0.7212334382161087  0.06301987672194809  0.8104764837319345  1.0000
  C   C24       1.0  0.278766561574402  0.936980123402186  0.18952351570330264  1.0000
  C   C25       1.0  0.8498779630794647  0.9048196369134811  0.9424886727619007  1.0000
  C   C26       1.0  0.150122036711046  0.0951803632106528  0.0575113266733364  1.0000
  C   C27       1.0  0.8607423655134996  0.01886098244775365  0.874185323596496  1.0000
  C   C28       1.0  0.13925763395606852  0.981139017625541  0.12581467660101536  1.0000
  C   C29       1.0  0.8189987025413709  0.07171638572915363  0.4676830427820166  1.0000
  C   C30       1.0  0.18100129692819733  0.9282836143441411  0.5323169574154948  1.0000
  C   C31       1.0  0.1438986989284989  0.07764805080777927  0.4872321245249152  1.0000
  C   C32       1.0  0.8561013019945557  0.9223519492654486  0.5127678756631091  1.0000
  N   N1        1.0  0.6781726568106093  0.5863988778154954  0.6364528616034464  1.0000
  N   N2        1.0  0.321827344112445  0.41360112225773255  0.363547138584578  1.0000
  N   N3        1.0  0.6199908225602554  0.6325918496644621  0.5457817696391515  1.0000
  N   N4        1.0  0.38000917690931274  0.36740815040883257  0.4542182305583599  1.0000
  N   N5        1.0  0.8323290011778007  0.41699027433702374  0.5226941275186379  1.0000
  N   N6        1.0  0.16767099829176738  0.583009725736271  0.4773058726788735  1.0000
  O   O1        1.0  0.6373451393452485  0.5529694176110391  0.878626748466211  1.0000
  O   O2        1.0  0.3626548601243195  0.4470305824622556  0.12137325173130038  1.0000
  O   O3        1.0  0.010973681314002857  0.09904417703078415  0.41702673806574486  1.0000
  O   O4        1.0  0.9890263196090516  0.9009558230424437  0.5829732621222796  1.0000
  S   S1        1.0  0.941161991018169  0.35659257083914164  0.707303189247752  1.0000
  S   S2        1.0  0.058838008451399124  0.6434074292341531  0.29269681094975925  1.0000
  Cl  Cl1       1.0  0.1791681041766312  0.6990160178196062  0.7267669272551326  1.0000
  Cl  Cl2       1.0  0.8208318970673659  0.300983982304461  0.2732330721706176  1.0000
  Cl  Cl3       1.0  0.39510691953136623  0.05689007145563329  0.7370278542118454  1.0000
  Cl  Cl4       1.0  0.604893079938202  0.9431099286176614  0.26297214598566604  1.0000
