data_image0
_chemical_formula_structural       H24C18N16O34
_chemical_formula_sum              "H24 C18 N16 O34"
_cell_length_a       10.232879496884546
_cell_length_b       10.432805545815436
_cell_length_c       11.292439803999708
_cell_angle_alpha    63.47305910812573
_cell_angle_beta     70.05839231461962
_cell_angle_gamma    89.64107362266384

_space_group_name_H-M_alt    "P 1"
_space_group_IT_number       1

loop_
  _space_group_symop_operation_xyz
  'x, y, z'

loop_
  _atom_site_type_symbol
  _atom_site_label
  _atom_site_symmetry_multiplicity
  _atom_site_fract_x
  _atom_site_fract_y
  _atom_site_fract_z
  _atom_site_occupancy
  H   H1        1.0  0.33023986310148934  0.616644985883252  0.9426652426323608  1.0000
  H   H2        1.0  0.6697601365811688  0.38335501460634236  0.05733475779126161  1.0000
  H   H3        1.0  0.6149243944892204  0.6469324758413509  0.8603830697147953  1.0000
  H   H4        1.0  0.38507560623620884  0.35306752464711094  0.1396169295043621  1.0000
  H   H5        1.0  0.78327451939564  0.986471416514967  0.9270576726949071  1.0000
  H   H6        1.0  0.21672548010273462  0.013528582886803277  0.07294232823462331  1.0000
  H   H7        1.0  0.6039932599200508  0.9224441759998238  0.05141171902708179  1.0000
  H   H8        1.0  0.39600673976598083  0.07755582448965018  0.9485882805100041  1.0000
  H   H9        1.0  0.14563952818576772  0.9235932408022316  0.671107591919666  1.0000
  H   H10       1.0  0.8543604725362881  0.07640675968635081  0.32889240818602794  1.0000
  H   H11       1.0  0.3318917197216377  0.9850262821798682  0.5625149575610542  1.0000
  H   H12       1.0  0.6681082797801102  0.014973717221781487  0.43748504248194  1.0000
  H   H13       1.0  0.16246723682646788  0.7010428809036938  0.13250878428833257  1.0000
  H   H14       1.0  0.8375327626752801  0.29895711849795586  0.8674912157546616  1.0000
  H   H15       1.0  0.058212651304464964  0.6049450219581042  0.32106559662366946  1.0000
  H   H16       1.0  0.9417873492366807  0.39505497744253354  0.6789344031013962  1.0000
  H   H17       1.0  0.22846682732336437  0.7041374809396478  0.2586618345990441  1.0000
  H   H18       1.0  0.7715331721783835  0.29586251846200184  0.7413381654439501  1.0000
  H   H19       1.0  0.12329946484097948  0.3611660192352799  0.47378664306450363  1.0000
  H   H20       1.0  0.8767005348450522  0.6388339812541939  0.5262133564725824  1.0000
  H   H21       1.0  0.28889995683656916  0.45639083518378026  0.42713969052244044  1.0000
  H   H22       1.0  0.7111000438888602  0.5436091653046817  0.572860308696717  1.0000
  H   H23       1.0  0.28038100122217857  0.30708036006608264  0.39052042185559893  1.0000
  H   H24       1.0  0.7196189984638531  0.6929196404233913  0.6094795776814871  1.0000
  C   C1        1.0  0.5436666988343961  0.797189485917949  0.9341669967192384  1.0000
  C   C2        1.0  0.45633330085163554  0.20281051457152485  0.06583300281784762  1.0000
  C   C3        1.0  0.7011431187546162  0.8895072369544306  0.0019386002808989976  1.0000
  C   C4        1.0  0.29885688196743976  0.11049276353415202  0.9980613998247949  1.0000
  C   C5        1.0  0.7540204833171286  0.7868147199476261  0.1145543468405815  1.0000
  C   C6        1.0  0.24597951618124594  0.21318527945414398  0.8854456540889489  1.0000
  C   C7        1.0  0.4039345345626532  0.8009391376514351  0.7412640842011586  1.0000
  C   C8        1.0  0.5960654649390947  0.19906086175021448  0.2587359158418354  1.0000
  C   C9        1.0  0.24504596958799013  0.8916558798737239  0.6254863405131597  1.0000
  C   C10       1.0  0.7549540311374392  0.10834412061473822  0.3745136587059979  1.0000
  C   C11       1.0  0.22664541969114477  0.8371880763859705  0.5266971275411401  1.0000
  C   C12       1.0  0.7733545798106031  0.16281192301567926  0.47330287250185404  1.0000
  C   C13       1.0  0.1650456981856916  0.6368619031734096  0.2387897049587919  1.0000
  C   C14       1.0  0.8349543025363644  0.3631380973151729  0.761210295146902  1.0000
  C   C15       1.0  0.2299058890912952  0.5049912539698628  0.2502146750738224  1.0000
  C   C16       1.0  0.7700941116307608  0.4950087465187198  0.7497853250318715  1.0000
  C   C17       1.0  0.23145878992157262  0.39980924598295253  0.3930244575983866  1.0000
  C   C18       1.0  0.7685412097610858  0.6001907545066419  0.6069755428252357  1.0000
  N   N1        1.0  0.41720440806134906  0.6856657649141906  0.8554924447528881  1.0000
  N   N2        1.0  0.5827955914370255  0.31433423448757947  0.1445075561766422  1.0000
  N   N3        1.0  0.5340588982800804  0.7023448919232443  0.8847048008346204  1.0000
  N   N4        1.0  0.4659411022576918  0.2976551074775139  0.11529519977698156  1.0000
  N   N5        1.0  0.8701023797177332  0.714556354642251  0.04989038851917781  1.0000
  N   N6        1.0  0.1298976197806414  0.2854436447595191  0.9501096124103527  1.0000
  N   N7        1.0  0.6381668376879471  0.6625105873092377  0.24632885912340677  1.0000
  N   N8        1.0  0.3618331618138008  0.33748941209241196  0.7536711409195873  1.0000
  N   N9        1.0  0.8165583736162301  0.8680780830312261  0.17309601483076187  1.0000
  N   N10       1.0  0.18344162588214455  0.13192191637054398  0.8269039860987686  1.0000
  N   N11       1.0  0.15470282706096908  0.9408030434594252  0.43015086626318244  1.0000
  N   N12       1.0  0.8452971724374057  0.05919695594234491  0.569849134666348  1.0000
  N   N13       1.0  0.1266240689521222  0.6886068508133637  0.6114667640064776  1.0000
  N   N14       1.0  0.8733759317699337  0.31139314967521875  0.3885332360992162  1.0000
  N   N15       1.0  0.36473129323272846  0.817959276583921  0.4292206175320313  1.0000
  N   N16       1.0  0.6352687074893274  0.18204072390466144  0.5707793825736627  1.0000
  O   O1        1.0  0.45051066212215435  0.8580224803190317  0.9762483300363655  1.0000
  O   O2        1.0  0.5494893375638773  0.1419775201704421  0.023751669500720607  1.0000
  O   O3        1.0  0.6804906021821432  0.8168211428075077  0.9273883165035032  1.0000
  O   O4        1.0  0.3195093975005151  0.18317885768208667  0.0726116839201191  1.0000
  O   O5        1.0  0.971421111116351  0.8010540571942402  0.9456967312491595  1.0000
  O   O6        1.0  0.028578889605704774  0.1989459432943423  0.054303268856534435  1.0000
  O   O7        1.0  0.8499440504883424  0.5814150293152819  0.10615851932784029  1.0000
  O   O8        1.0  0.15005595023708693  0.41858497117318  0.8938414798913175  1.0000
  O   O9        1.0  0.5398338636919006  0.6228127454272231  0.22480932286000532  1.0000
  O   O10       1.0  0.4601661359907577  0.3771872550623713  0.7751906775636169  1.0000
  O   O11       1.0  0.6565276435912175  0.6144053863637101  0.3591871285188387  1.0000
  O   O12       1.0  0.3434723571308383  0.3855946141248724  0.6408128715868552  1.0000
  O   O13       1.0  0.928305282164954  0.8412373401037128  0.18876945243247342  1.0000
  O   O14       1.0  0.07169471751770423  0.15876266038588163  0.8112305479911489  1.0000
  O   O15       1.0  0.7438568117717689  0.9526320346031913  0.20085303352315487  1.0000
  O   O16       1.0  0.25614318772997907  0.047367964798458236  0.7991469665198394  1.0000
  O   O17       1.0  0.4949689770028644  0.9074812670355854  0.6522791752044899  1.0000
  O   O18       1.0  0.5050310224955101  0.0925187323661849  0.34772082572504065  1.0000
  O   O19       1.0  0.27196283373869395  0.7780262788524345  0.7402815595520742  1.0000
  O   O20       1.0  0.7280371659473378  0.22197372163703943  0.2597184399850119  1.0000
  O   O21       1.0  0.17254647904476964  0.06782550929725165  0.40531776045251416  1.0000
  O   O22       1.0  0.827453520641262  0.9321744911922223  0.5946822390845717  1.0000
  O   O23       1.0  0.08621145470024923  0.8871829453542025  0.3874507586557179  1.0000
  O   O24       1.0  0.9137885449857824  0.11281705513527147  0.6125492408813682  1.0000
  O   O25       1.0  0.16153717738336903  0.5954664468340468  0.5741394742548827  1.0000
  O   O26       1.0  0.8384628223026626  0.4045335536554271  0.42586052528220325  1.0000
  O   O27       1.0  0.018478599589046296  0.6810016251432525  0.7067308868560451  1.0000
  O   O28       1.0  0.9815214009520995  0.31899837425738525  0.29326911286902035  1.0000
  O   O29       1.0  0.44429873415213406  0.7585596446475982  0.4891973204069821  1.0000
  O   O30       1.0  0.5557012665699219  0.24144035584098422  0.510802679698712  1.0000
  O   O31       1.0  0.38097016018638  0.8593433264434026  0.30401449967488486  1.0000
  O   O32       1.0  0.6190298394996516  0.14065667404607124  0.6959854998622012  1.0000
  O   O33       1.0  0.2824701009378024  0.4851905574979061  0.14452100474103238  1.0000
  O   O34       1.0  0.7175298985639454  0.5148094419037436  0.8554789953019616  1.0000
