data_image0
_chemical_formula_structural       H28C20N16O36
_chemical_formula_sum              "H28 C20 N16 O36"
_cell_length_a       10.199598543894375
_cell_length_b       11.35405370113945
_cell_length_c       11.446075298776545
_cell_angle_alpha    63.362423390966114
_cell_angle_beta     65.05201855425895
_cell_angle_gamma    87.24218002033078

_space_group_name_H-M_alt    "P 1"
_space_group_IT_number       1

loop_
  _space_group_symop_operation_xyz
  'x, y, z'

loop_
  _atom_site_type_symbol
  _atom_site_label
  _atom_site_symmetry_multiplicity
  _atom_site_fract_x
  _atom_site_fract_y
  _atom_site_fract_z
  _atom_site_occupancy
  H   H1        1.0  0.40021319747265405  0.6566307681701361  0.5595545947452053  1.0000
  H   H2        1.0  0.5997868019466605  0.3433692314610957  0.4404454054815337  1.0000
  H   H3        1.0  0.3623746346417269  0.3880130027310213  0.6535564146597906  1.0000
  H   H4        1.0  0.6376253660523291  0.6119869978919577  0.3464435855247903  1.0000
  H   H5        1.0  0.17580041465533258  0.4499312852301587  0.3625997415718462  1.0000
  H   H6        1.0  0.8241995858447434  0.5500687143981302  0.6374002582492533  1.0000
  H   H7        1.0  0.027842189538118973  0.3406453811418925  0.5344337463720269  1.0000
  H   H8        1.0  0.9721578109619567  0.6593546184863962  0.46556625344907254  1.0000
  H   H9        1.0  0.07725840104636346  0.8236002952124886  0.7918963009674802  1.0000
  H   H10       1.0  0.9227415994537125  0.1763997044158003  0.20810369885361923  1.0000
  H   H11       1.0  0.02372096927961559  0.6488912636631453  0.9246675693289419  1.0000
  H   H12       1.0  0.9762790312204603  0.3511087359651436  0.07533243049215738  1.0000
  H   H13       1.0  0.29695118877168725  0.9563797577673212  0.28390528294454015  1.0000
  H   H14       1.0  0.7030488108418415  0.04362024286447181  0.7160947167693348  1.0000
  H   H15       1.0  0.3729300822123211  0.9368615161345335  0.40583068127998984  1.0000
  H   H16       1.0  0.6270699172069935  0.0631384834966984  0.5941693189467492  1.0000
  H   H17       1.0  0.24198484645449234  0.8057365971886432  0.45360559896220937  1.0000
  H   H18       1.0  0.7580151531590363  0.19426340344314982  0.5463944007516655  1.0000
  H   H19       1.0  0.6949914055253  0.8098121438404441  0.09968828884409267  1.0000
  H   H20       1.0  0.3050085938940145  0.19018785579078776  0.9003117113826462  1.0000
  H   H21       1.0  0.6336183067514531  0.8746799662338084  0.9612238630277624  1.0000
  H   H22       1.0  0.366381693942837  0.12532003439504158  0.03877613628047299  1.0000
  H   H23       1.0  0.6318003847748149  0.6263614465781117  0.05685727681556232  1.0000
  H   H24       1.0  0.36819961483871394  0.37363855405368146  0.9431427228983126  1.0000
  H   H25       1.0  0.45314040467575706  0.665101776467721  0.09089850519923255  1.0000
  H   H26       1.0  0.5468595947433232  0.33489822315763984  0.909101495903852  1.0000
  H   H27       1.0  0.5054747688565907  0.5972222887216382  0.23495976432418664  1.0000
  H   H28       1.0  0.49452523075693805  0.40277771191015477  0.7650402353896884  1.0000
  C   C1        1.0  0.23291460944262368  0.4774017369837561  0.5486140981171349  1.0000
  C   C2        1.0  0.7670853899766908  0.5225982626474758  0.45138590210960405  1.0000
  C   C3        1.0  0.14649718177551424  0.357365140585226  0.4657138051462358  1.0000
  C   C4        1.0  0.8535028187245618  0.6426348590430628  0.5342861946748636  1.0000
  C   C5        1.0  0.18722560720238943  0.2417694880270497  0.4337324263526128  1.0000
  C   C6        1.0  0.8127743924111392  0.7582305126047433  0.5662675733612622  1.0000
  C   C7        1.0  0.2070226520294837  0.5841025002776077  0.7553695069283125  1.0000
  C   C8        1.0  0.792977347584045  0.41589750035418543  0.2446304927855623  1.0000
  C   C9        1.0  0.11495886717707399  0.7339506092949609  0.8505544715839611  1.0000
  C   C10       1.0  0.8850411322422406  0.26604939033627095  0.14944552864277796  1.0000
  C   C11       1.0  0.1731068498664359  0.7627756965848054  0.9390398427818873  1.0000
  C   C12       1.0  0.82689315063364  0.2372243030434835  0.06096015703921189  1.0000
  C   C13       1.0  0.4543793781699383  0.8240361636001641  0.29247612914349236  1.0000
  C   C14       1.0  0.5456206214435905  0.17596383703162902  0.7075238705703827  1.0000
  C   C15       1.0  0.3338183249678921  0.8857908263888717  0.36190562856794417  1.0000
  C   C16       1.0  0.6661816744511883  0.1142091732364889  0.6380943725351405  1.0000
  C   C17       1.0  0.6019007330768235  0.8057745716163809  0.07655036746065838  1.0000
  C   C18       1.0  0.39809926634249104  0.1942254280148509  0.9234496327660806  1.0000
  C   C19       1.0  0.5438487624884132  0.6654240117749411  0.11811924713468804  1.0000
  C   C20       1.0  0.4561512369309014  0.3345759878562907  0.8818807530920509  1.0000
  N   N1        1.0  0.32746881575903614  0.5722879825000871  0.6492626872589043  1.0000
  N   N2        1.0  0.6725311838544927  0.427712018131706  0.3507373124549707  1.0000
  N   N3        1.0  0.3127438097761633  0.46949217537576154  0.6207636409877509  1.0000
  N   N4        1.0  0.6872561896431513  0.5305078242554704  0.3792363592389879  1.0000
  N   N5        1.0  0.35568919213219796  0.24995114086225395  0.3671112782148898  1.0000
  N   N6        1.0  0.6443108074810967  0.750048859763668  0.6328887223753308  1.0000
  N   N7        1.0  0.1360970167352684  0.2427530356946708  0.3247179632403981  1.0000
  N   N8        1.0  0.8639029826840461  0.7572469639365609  0.6752820369863409  1.0000
  N   N9        1.0  0.11626903273269111  0.10276701743492982  0.5705575618011272  1.0000
  N   N10       1.0  0.8837309666866233  0.8972329821963019  0.4294424384256119  1.0000
  N   N11       1.0  0.18801313801727917  0.6365682433830769  0.06011694008247901  1.0000
  N   N12       1.0  0.8119868614020354  0.36343175624815494  0.93988306014426  1.0000
  N   N13       1.0  0.32455117637412556  0.8546514962757173  0.8405308634543979  1.0000
  N   N14       1.0  0.6754488230449549  0.1453485033496435  0.1594691376486867  1.0000
  N   N15       1.0  0.07186642583264358  0.8377676415236865  0.015894994397888218  1.0000
  N   N16       1.0  0.9281335735866707  0.1622323581075452  0.984105005828851  1.0000
  O   O1        1.0  0.17332150467676172  0.5705126546060402  0.49944057304016953  1.0000
  O   O2        1.0  0.8266784947425528  0.4294873450251916  0.5005594271865695  1.0000
  O   O3        1.0  0.2299512612439742  0.36218352649131036  0.5376274838390667  1.0000
  O   O4        1.0  0.7700487381753403  0.6378164731399214  0.46237251638767246  1.0000
  O   O5        1.0  0.40514825265938126  0.15491105356048  0.4305805316333565  1.0000
  O   O6        1.0  0.5948517467599331  0.8450889460707518  0.5694194685933827  1.0000
  O   O7        1.0  0.42307196433493943  0.35542922998033877  0.25557331898836616  1.0000
  O   O8        1.0  0.5769280352785893  0.6445707706514542  0.7444266807255089  1.0000
  O   O9        1.0  0.21752709449770008  0.21314232843460207  0.23086178766061022  1.0000
  O   O10       1.0  0.7824729051155946  0.7868576721913199  0.7691382129296106  1.0000
  O   O11       1.0  0.013135848208575192  0.27136814067850573  0.3467385998911028  1.0000
  O   O12       1.0  0.9868641514049535  0.7286318599532873  0.6532613998227722  1.0000
  O   O13       1.0  0.1139683525496145  0.007698410392345841  0.546526023354026  1.0000
  O   O14       1.0  0.8860316468696999  0.992301589238886  0.453473976872713  1.0000
  O   O15       1.0  0.06957441409427101  0.09982283100533877  0.6896409463964628  1.0000
  O   O16       1.0  0.930425586405805  0.9001771686229499  0.3103590534246367  1.0000
  O   O17       1.0  0.09626901503925123  0.5001264402527077  0.8451501856853881  1.0000
  O   O18       1.0  0.903730985655039  0.4998735603761423  0.15484981362284717  1.0000
  O   O19       1.0  0.2311538216855553  0.7072594813699936  0.7453748898522154  1.0000
  O   O20       1.0  0.7688461777337593  0.2927405182612382  0.2546251103745235  1.0000
  O   O21       1.0  0.23823101642303388  0.5502185394104037  0.026001672409586996  1.0000
  O   O22       1.0  0.7617689831904948  0.4497814612213891  0.9739983273042884  1.0000
  O   O23       1.0  0.15108126650854917  0.6344464499696159  0.17828281007488414  1.0000
  O   O24       1.0  0.8489187329107654  0.36555354966161596  0.821717190151855  1.0000
  O   O25       1.0  0.4226889926877612  0.821117834775706  0.8776064975177313  1.0000
  O   O26       1.0  0.5773110067315532  0.17888216485552577  0.12239350270900773  1.0000
  O   O27       1.0  0.3300071285250855  0.9554272274694773  0.7335996429362946  1.0000
  O   O28       1.0  0.6699928710884433  0.04457277316231575  0.2664003567775804  1.0000
  O   O29       1.0  0.9402705059060683  0.8015430296133678  0.0633752271676065  1.0000
  O   O30       1.0  0.05972949351324618  0.19845697001786405  0.9366247730591324  1.0000
  O   O31       1.0  0.131440805410552  0.9229988305720783  0.02426044076173213  1.0000
  O   O32       1.0  0.8685591950895238  0.07700116905621034  0.9757395590593673  1.0000
  O   O33       1.0  0.5169889557044312  0.7435884362076907  0.3580640165607359  1.0000
  O   O34       1.0  0.48301104371488335  0.2564115634235412  0.6419359836660031  1.0000
  O   O35       1.0  0.4875662992358716  0.8639012373564794  0.15304852886817272  1.0000
  O   O36       1.0  0.5124337003776572  0.13609876327531364  0.8469514708457023  1.0000
