data_image0
_chemical_formula_structural       H64C68O10S4
_chemical_formula_sum              "H64 C68 O10 S4"
_cell_length_a       8.625662110316446
_cell_length_b       6.222167090803188
_cell_length_c       25.75776247319492
_cell_angle_alpha    90.0
_cell_angle_beta     95.04422859143054
_cell_angle_gamma    90.0

_space_group_name_H-M_alt    "P 1"
_space_group_IT_number       1

loop_
  _space_group_symop_operation_xyz
  'x, y, z'

loop_
  _atom_site_type_symbol
  _atom_site_label
  _atom_site_symmetry_multiplicity
  _atom_site_fract_x
  _atom_site_fract_y
  _atom_site_fract_z
  _atom_site_occupancy
  H   H1        1.0  0.255503574698763  0.8626841342679374  0.39787304977821975  1.0000
  H   H2        1.0  0.7444964252391856  0.36268413513605857  0.6021269503013003  1.0000
  H   H3        1.0  0.6601269806035317  0.5603575055310717  0.18115278892717235  1.0000
  H   H4        1.0  0.33987301933441677  0.06035750479203566  0.8188472111523477  1.0000
  H   H5        1.0  0.4062510904765495  0.23946064100436557  0.498611744225911  1.0000
  H   H6        1.0  0.5937489093747267  0.7394606417434016  0.5013882554639026  1.0000
  H   H7        1.0  0.2760033689779241  0.18719710560676142  0.5778530295513548  1.0000
  H   H8        1.0  0.7239966321206314  0.6871971063457976  0.4221469705334259  1.0000
  H   H9        1.0  0.02012227745871958  0.7780777772997827  0.5478692033908719  1.0000
  H   H10       1.0  0.9798777223925567  0.27807777816790374  0.4521307962989418  1.0000
  H   H11       1.0  0.15448817482913446  0.8335061907394933  0.46861917421701615  1.0000
  H   H12       1.0  0.8455118251088141  0.3335061900004572  0.5313808258625039  1.0000
  H   H13       1.0  0.05218260155456015  0.12198838104523169  0.6169640143557743  1.0000
  H   H14       1.0  0.9478173983833884  0.6219883817842677  0.38303598572374575  1.0000
  H   H15       1.0  0.9964726773802497  0.2779587392560277  0.6707981033690561  1.0000
  H   H16       1.0  0.0035273225576989446  0.7779587399950637  0.32920189671046407  1.0000
  H   H17       1.0  0.1984233255754987  0.25911163529873715  0.6585882870269091  1.0000
  H   H18       1.0  0.8015766743624498  0.7591116344306161  0.341411713052611  1.0000
  H   H19       1.0  0.8167711919652948  0.3890949752182697  0.13720584864013843  1.0000
  H   H20       1.0  0.18322880788598145  0.8890949743501487  0.8627941510496752  1.0000
  H   H21       1.0  0.984252810208687  0.17159241537857495  0.08531823684256042  1.0000
  H   H22       1.0  0.01574719088986854  0.671592416117611  0.9146817632422204  1.0000
  H   H23       1.0  0.02244482087318402  0.6883890399425281  0.2052828534063525  1.0000
  H   H24       1.0  0.9775551790647645  0.18838904081064914  0.7947171466731676  1.0000
  H   H25       1.0  0.8515791273534054  0.9016439221460718  0.25678650325069075  1.0000
  H   H26       1.0  0.14842087258454323  0.40164392140703575  0.7432134968288293  1.0000
  H   H27       1.0  0.26024533816056045  0.5678526867628537  0.10154132571927649  1.0000
  H   H28       1.0  0.739754661777388  0.06785268763097481  0.8984586743602435  1.0000
  H   H29       1.0  0.09703625533008362  0.4944516974716701  0.13620062444821246  1.0000
  H   H30       1.0  0.9029637457684718  0.9944516982107062  0.8637993756365683  1.0000
  H   H31       1.0  0.253266474933852  0.6466214055785895  0.16819384021164135  1.0000
  H   H32       1.0  0.7467335250040966  0.14662140644671043  0.8318061598678786  1.0000
  H   H33       1.0  0.24076268351731217  0.0647787168229149  0.32960748510033283  1.0000
  H   H34       1.0  0.7592373164206364  0.5647787159547939  0.6703925149791873  1.0000
  H   H35       1.0  0.5243650883054818  0.8583694638953464  0.17779818451260013  1.0000
  H   H36       1.0  0.47563491163246674  0.3583694631563104  0.82220181556692  1.0000
  H   H37       1.0  0.03790487089329485  0.5129377953731574  0.2765102539721062  1.0000
  H   H38       1.0  0.9620951302052606  0.012937794634121359  0.7234897461126745  1.0000
  H   H39       1.0  0.1886190978740902  0.4202262783757032  0.3236552220173214  1.0000
  H   H40       1.0  0.8113809020638584  0.9202262791147393  0.6763447780621987  1.0000
  H   H41       1.0  0.035467321673357886  0.2420541296980157  0.2990469596687655  1.0000
  H   H42       1.0  0.9645326782645907  0.7420541288298946  0.7009530404107546  1.0000
  H   H43       1.0  0.38771292487724546  0.013906052141848028  0.10450385074632466  1.0000
  H   H44       1.0  0.6122870750607031  0.5139060528808841  0.8954961493331954  1.0000
  H   H45       1.0  0.5604823724691552  0.14446030729849318  0.13376184924154405  1.0000
  H   H46       1.0  0.4395176274687933  0.6444603064303722  0.866238150837976  1.0000
  H   H47       1.0  0.4186066280077571  0.2952688963810587  0.09478442190540112  1.0000
  H   H48       1.0  0.5813933719301914  0.7952688955129377  0.9052155781741189  1.0000
  H   H49       1.0  0.7036391237563937  0.7639243611804749  0.10641140544805924  1.0000
  H   H50       1.0  0.2963608761815549  0.26392436204859604  0.8935885946314609  1.0000
  H   H51       1.0  0.5087794961146239  0.7106350400868496  0.07926542008600927  1.0000
  H   H52       1.0  0.49122050382332455  0.21063503934781355  0.9207345799935108  1.0000
  H   H53       1.0  0.6769978331143872  0.036969672566331935  0.038926661746804155  1.0000
  H   H54       1.0  0.3230021668235613  0.536969673305368  0.9610733383327159  1.0000
  H   H55       1.0  0.5618986200187324  0.8653414013838333  0.9957436726464228  1.0000
  H   H56       1.0  0.43810138107982316  0.3653414006447972  0.004256327438357978  1.0000
  H   H57       1.0  0.8188799648966256  0.8041892168720408  0.964996781950693  1.0000
  H   H58       1.0  0.18112003504132287  0.3041892177401618  0.03500321812882692  1.0000
  H   H59       1.0  0.912296968237353  0.8355151660398313  0.0288118358518823  1.0000
  H   H60       1.0  0.08770303286120254  0.3355151653007953  0.9711881642328983  1.0000
  H   H61       1.0  0.7538489984272725  0.43819658170704084  0.9819510724531816  1.0000
  H   H62       1.0  0.24615100142400376  0.938196582446077  0.018048927236632005  1.0000
  H   H63       1.0  0.9015382906994859  0.46056937368907525  0.034625621195420384  1.0000
  H   H64       1.0  0.09846170923846276  0.9605693744281114  0.9653743788840997  1.0000
  C   C1        1.0  0.358407896712852  0.5644142304038751  0.4272707589473747  1.0000
  C   C2        1.0  0.6415921031384243  0.06441423127199614  0.572729240742439  1.0000
  C   C3        1.0  0.33180948254383685  0.7279208552104862  0.3914920074377998  1.0000
  C   C4        1.0  0.6681905173074393  0.2279208560786073  0.6085079922520139  1.0000
  C   C5        1.0  0.40921488243793847  0.7008775055954121  0.3454447640965544  1.0000
  C   C6        1.0  0.5907851175000101  0.20087750646353306  0.6545552359829657  1.0000
  C   C7        1.0  0.5002007278916859  0.511755949901526  0.3474060285193659  1.0000
  C   C8        1.0  0.4997992720462626  0.011755949162489907  0.6525939715601541  1.0000
  C   C9        1.0  0.5821609495077913  0.4536848591180482  0.3045378853031796  1.0000
  C   C10       1.0  0.4178390504301573  0.9536848582499272  0.6954621147763403  1.0000
  C   C11       1.0  0.5701249844499888  0.5809248783020721  0.2588523499566785  1.0000
  C   C12       1.0  0.4298750154879597  0.08092487917019311  0.7411476501228416  1.0000
  C   C13       1.0  0.65594385567595  0.49012384680372484  0.21961486990849646  1.0000
  C   C14       1.0  0.34405614426199854  0.9901238459356038  0.7803851301710235  1.0000
  C   C15       1.0  0.7310500530054272  0.30075357069178904  0.23398436353801272  1.0000
  C   C16       1.0  0.2689499469325212  0.8007535714308252  0.7660156365415075  1.0000
  C   C17       1.0  0.28946780351558044  0.5382337409340927  0.4764912892724232  1.0000
  C   C18       1.0  0.7105321964223681  0.03823374019505656  0.5235087108070969  1.0000
  C   C19       1.0  0.3220101111942723  0.3595612103228177  0.5089342684583312  1.0000
  C   C20       1.0  0.6779898887436762  0.8595612094546967  0.4910657316211887  1.0000
  C   C21       1.0  0.24782423082611663  0.3290581882679246  0.5542635434432227  1.0000
  C   C22       1.0  0.7521757691118319  0.8290581890069606  0.4457364566362974  1.0000
  C   C23       1.0  0.13739908516031438  0.47887799483947496  0.5679523008037797  1.0000
  C   C24       1.0  0.8626009147776342  0.978877995578511  0.43204769927574044  1.0000
  C   C25       1.0  0.1061576062622489  0.6619944433970985  0.536931820081438  1.0000
  C   C26       1.0  0.8938423948363066  0.16199444426521947  0.46306818000334277  1.0000
  C   C27       1.0  0.18155435625610442  0.6909571869830695  0.4921817945771984  1.0000
  C   C28       1.0  0.8184456436818441  0.1909571862440334  0.5078182055023217  1.0000
  C   C29       1.0  0.0778493935312879  0.26731267510614176  0.6406417625554809  1.0000
  C   C30       1.0  0.9221506064066606  0.7673126758451778  0.3593582375240391  1.0000
  C   C31       1.0  0.8255291787246806  0.16709185318033523  0.20268054717463282  1.0000
  C   C32       1.0  0.17447082121326796  0.6670918523122141  0.7973194529048871  1.0000
  C   C33       1.0  0.8622582754311808  0.23714992356618375  0.15303547974161139  1.0000
  C   C34       1.0  0.1377417245067676  0.7371499226980627  0.8469645203379086  1.0000
  C   C35       1.0  0.9554604886707966  0.11521474745665514  0.12333424688422132  1.0000
  C   C36       1.0  0.04453951126715188  0.6152147481956912  0.8766657531952988  1.0000
  C   C37       1.0  0.01751228285688058  0.9188936324855197  0.14218352460596215  1.0000
  C   C38       1.0  0.982487717081068  0.41889363174648364  0.8578164754735578  1.0000
  C   C39       1.0  0.9784965213386057  0.8423095769553605  0.1904525891206216  1.0000
  C   C40       1.0  0.02150347859934296  0.3423095762163245  0.8095474109588984  1.0000
  C   C41       1.0  0.883083807675811  0.965598104698992  0.21976670395887046  1.0000
  C   C42       1.0  0.11691619342274454  0.4655981055671131  0.7802332961259103  1.0000
  C   C43       1.0  0.18399829786756713  0.6195138677162098  0.13094364897681063  1.0000
  C   C44       1.0  0.8160017020703815  0.11951386697717367  0.8690563511027094  1.0000
  C   C45       1.0  0.3958601371587247  0.8324006257651665  0.2995075113205408  1.0000
  C   C46       1.0  0.6041398626925516  0.33240062502613055  0.7004924883692728  1.0000
  C   C47       1.0  0.30150030764377017  0.018308873474063923  0.29615673868571285  1.0000
  C   C48       1.0  0.6984996922941783  0.5183088742131  0.7038432613938073  1.0000
  C   C49       1.0  0.2869496262657011  0.14380513202908818  0.25171854113472847  1.0000
  C   C50       1.0  0.7130503736722476  0.6438051327681242  0.7482814589447915  1.0000
  C   C51       1.0  0.36994655540377036  0.08564418669946255  0.20818983027154808  1.0000
  C   C52       1.0  0.6300534445341782  0.5856441874384986  0.7918101698079719  1.0000
  C   C53       1.0  0.4608874904110557  0.9023066189106917  0.21080566043240823  1.0000
  C   C54       1.0  0.5391125095268928  0.4023066181716557  0.7891943396471117  1.0000
  C   C55       1.0  0.47621660079143213  0.771877590220747  0.25590788093577316  1.0000
  C   C56       1.0  0.5237833991465164  0.2718775894817108  0.7440921191437468  1.0000
  C   C57       1.0  0.11077626694139299  0.3758673346231382  0.2892357312508541  1.0000
  C   C58       1.0  0.8892237329965557  0.8758673337550171  0.710764268828666  1.0000
  C   C59       1.0  0.4352590152473085  0.16285094167556338  0.12260316836067396  1.0000
  C   C60       1.0  0.5647409846906402  0.6628509408074423  0.8773968317188461  1.0000
  C   C61       1.0  0.6310148951727529  0.7186251871328014  0.07047227190980239  1.0000
  C   C62       1.0  0.36898510476519564  0.2186251863937654  0.9295277281697176  1.0000
  C   C63       1.0  0.6604006809122793  0.8699436709118127  0.025865502421247473  1.0000
  C   C64       1.0  0.3395993190256693  0.36994367177993376  0.9741344976582726  1.0000
  C   C65       1.0  0.8082458840471269  0.772008171734895  0.0064052199742664  1.0000
  C   C66       1.0  0.19175411589082159  0.272008170995859  0.9935947801052537  1.0000
  C   C67       1.0  0.7917022781213737  0.53060876569514  0.01724429475127366  1.0000
  C   C68       1.0  0.2082977218165748  0.030608766563261065  0.9827557053282464  1.0000
  O   O1        1.0  0.05210355937736491  0.4577190420054061  0.6100271587201092  1.0000
  O   O2        1.0  0.9478964405605835  0.9577190427444422  0.3899728413594108  1.0000
  O   O3        1.0  0.11304871818066857  0.8148130186818161  0.11089390615961821  1.0000
  O   O4        1.0  0.8869512816706078  0.3148130179427801  0.8891060935301955  1.0000
  O   O5        1.0  0.19698312844151464  0.32330619551721557  0.24601981738068818  1.0000
  O   O6        1.0  0.8030168726570409  0.8233061962562516  0.7539801827040926  1.0000
  O   O7        1.0  0.3525417961974336  0.21989534193357424  0.16623115675457292  1.0000
  O   O8        1.0  0.6474582037405149  0.7198953410654533  0.833768843324947  1.0000
  O   O9        1.0  0.6735718266784471  0.5079385837566811  0.05350182488324338  1.0000
  O   O10       1.0  0.3264281732595015  0.007938583017645034  0.9464981751962768  1.0000
  S   S1        1.0  0.4855011825285328  0.37195137099753667  0.4050963855001623  1.0000
  S   S2        1.0  0.5144988174094158  0.8719513717365728  0.5949036145793578  1.0000
  S   S3        1.0  0.699320551661401  0.23137070235993387  0.29802261342686476  1.0000
  S   S4        1.0  0.3006794482765475  0.7313707030989699  0.7019773866526553  1.0000
