data_image0
_chemical_formula_structural       H92C128
_chemical_formula_sum              "H92 C128"
_cell_length_a       13.944384953083196
_cell_length_b       9.11529084849049
_cell_length_c       16.978356261365548
_cell_angle_alpha    89.99998661027759
_cell_angle_beta     100.49705246151389
_cell_angle_gamma    89.99994875599043

_space_group_name_H-M_alt    "P 1"
_space_group_IT_number       1

loop_
  _space_group_symop_operation_xyz
  'x, y, z'

loop_
  _atom_site_type_symbol
  _atom_site_label
  _atom_site_symmetry_multiplicity
  _atom_site_fract_x
  _atom_site_fract_y
  _atom_site_fract_z
  _atom_site_occupancy
  H   H1        1.0  0.7105779839664915  0.31997864968843864  0.42660464905383466  1.0000
  H   H2        1.0  0.28942226021462486  0.8199792623497056  0.07339537738632433  1.0000
  H   H3        1.0  0.28942040227316473  0.6800126199145471  0.5733928860249975  1.0000
  H   H4        1.0  0.7105779990167841  0.18002148363596399  0.9266041868498023  1.0000
  H   H5        1.0  0.543942169610623  0.729113484493094  0.1975407843931583  1.0000
  H   H6        1.0  0.456058014891925  0.22911361307810793  0.30245894042066057  1.0000
  H   H7        1.0  0.4560589542142134  0.27089021038251104  0.802461446428971  1.0000
  H   H8        1.0  0.5439421850297277  0.7708868915548284  0.6975410031318787  1.0000
  H   H9        1.0  0.7646476520172939  0.8143433108759426  0.30715472082674694  1.0000
  H   H10       1.0  0.23535183057701398  0.31434353787935143  0.19284513883523494  1.0000
  H   H11       1.0  0.23535239211732847  0.18565837528807785  0.6928459987985782  1.0000
  H   H12       1.0  0.764647571246113  0.685657149962948  0.8071539585666205  1.0000
  H   H13       1.0  0.8799219806403106  0.5696795460814644  0.1850483621907383  1.0000
  H   H14       1.0  0.12007776322372497  0.0696795495456692  0.3149511674993397  1.0000
  H   H15       1.0  0.12007665823411316  0.4303218745958147  0.8149511464736714  1.0000
  H   H16       1.0  0.8799223632483549  0.9303207027641348  0.6850483616691834  1.0000
  H   H17       1.0  0.5424915580972817  0.40609112812376846  0.43484752730590287  1.0000
  H   H18       1.0  0.4575081043047301  0.9060914716502575  0.06515292208724793  1.0000
  H   H19       1.0  0.45751016865930944  0.5939182122098751  0.5651568953186752  1.0000
  H   H20       1.0  0.5424917079194719  0.09390938623548471  0.9348472076175566  1.0000
  H   H21       1.0  0.8827194017368786  0.2535220411630763  0.42535674158546477  1.0000
  H   H22       1.0  0.1172808316363399  0.7535224575635989  0.07464307274421629  1.0000
  H   H23       1.0  0.11728246252403307  0.7464838971950851  0.5746451511922486  1.0000
  H   H24       1.0  0.8827191963304173  0.24647774976691753  0.9253564070170011  1.0000
  H   H25       1.0  0.6435245287358898  0.3898358408461101  0.13362953025457364  1.0000
  H   H26       1.0  0.3564752093999152  0.8898362713390044  0.36637022396152624  1.0000
  H   H27       1.0  0.3564751468774458  0.6101626572685371  0.8663709737435505  1.0000
  H   H28       1.0  0.6435249033783708  0.11016295961006489  0.6336294309793351  1.0000
  H   H29       1.0  0.3996511195139035  0.7206989276175364  0.26325154726965616  1.0000
  H   H30       1.0  0.6003486989011376  0.22069891759659221  0.2367479916391473  1.0000
  H   H31       1.0  0.6003470336805791  0.2792983648322039  0.7367467942039406  1.0000
  H   H32       1.0  0.39965141337087406  0.7793018996978726  0.7632518381549678  1.0000
  H   H33       1.0  0.40006298370734716  0.5603998052895337  0.382537708897411  1.0000
  H   H34       1.0  0.599937021234311  0.060399184816702825  0.11746181843388087  1.0000
  H   H35       1.0  0.5999378502184206  0.4396043931359419  0.6174636335947951  1.0000
  H   H36       1.0  0.4000632110410448  0.9396010027666127  0.8825377647617718  1.0000
  H   H37       1.0  0.7163861885092744  0.9046374081502911  0.9775084296566116  1.0000
  H   H38       1.0  0.28361492638540414  0.4046381927964648  0.522491413326167  1.0000
  H   H39       1.0  0.28361280015506884  0.09536098355047981  0.022490900761895957  1.0000
  H   H40       1.0  0.7163871588722619  0.5953625707407353  0.47750880427734665  1.0000
  H   H41       1.0  0.5867834458930369  0.2881442162418727  0.9992255955788525  1.0000
  H   H42       1.0  0.4132168810343928  0.788144466865997  0.5007739791395484  1.0000
  H   H43       1.0  0.41321603004569796  0.7118552878746794  0.0007755784232424283  1.0000
  H   H44       1.0  0.5867834582680754  0.21185561101150255  0.49922547450186827  1.0000
  H   H45       1.0  0.03002386953323678  0.27550178588873797  0.36498176617026407  1.0000
  H   H46       1.0  0.9699764732434724  0.7755020846955721  0.13501808574215404  1.0000
  H   H47       1.0  0.9699770625212597  0.7245029127951538  0.6350187604535115  1.0000
  H   H48       1.0  0.030023618361824253  0.22449807765550214  0.864981548967619  1.0000
  H   H49       1.0  0.6434710081046874  0.6990269633249043  0.890791352043644  1.0000
  H   H50       1.0  0.3565294882478317  0.1990273433921684  0.6092083194938206  1.0000
  H   H51       1.0  0.3565289625463253  0.300973079446586  0.10921006755322006  1.0000
  H   H52       1.0  0.6434712101306684  0.8009731886670414  0.3907908053249477  1.0000
  H   H53       1.0  0.028145806304931326  0.4322517942184168  0.24337943672979076  1.0000
  H   H54       1.0  0.9718543133474009  0.9322518733005395  0.2566202768834738  1.0000
  H   H55       1.0  0.9718524081392477  0.5677470867709501  0.7566183319397377  1.0000
  H   H56       1.0  0.0281458081088874  0.06774833951517607  0.743379321627996  1.0000
  H   H57       1.0  0.7831637513694635  0.1137106516107528  0.06423200627489595  1.0000
  H   H58       1.0  0.2168364590321218  0.6137115956304834  0.43576747935139504  1.0000
  H   H59       1.0  0.21683598054972464  0.8862880143537782  0.9357680502265222  1.0000
  H   H60       1.0  0.7831641436126743  0.38628820578827866  0.5642320529362642  1.0000
  H   H61       1.0  0.8175289618100704  0.07162520236572827  0.32082272305218795  1.0000
  H   H62       1.0  0.18247089024895902  0.5716257855321972  0.17917684074355775  1.0000
  H   H63       1.0  0.18247162829457658  0.9283765035452309  0.6791766972291434  1.0000
  H   H64       1.0  0.8175288192820156  0.4283749516773689  0.8208228154502432  1.0000
  H   H65       1.0  0.8287555315758299  0.2215804957509355  0.19968282089312392  1.0000
  H   H66       1.0  0.17124458459344047  0.7215813041482702  0.3003167710408627  1.0000
  H   H67       1.0  0.1712447550234805  0.7784202743700414  0.8003164758929198  1.0000
  H   H68       1.0  0.8287552374962359  0.2784188439411913  0.6996830897875919  1.0000
  H   H69       1.0  0.58831703822774  0.4420856394805909  0.8769048572196694  1.0000
  H   H70       1.0  0.4116832791901868  0.942085958900888  0.6230948710905883  1.0000
  H   H71       1.0  0.4116821559177453  0.5579137362804574  0.12309606517398775  1.0000
  H   H72       1.0  0.5883167089661536  0.057914216615054456  0.37690426938123145  1.0000
  H   H73       1.0  0.8761479431748479  0.11287947725241311  0.568828864504027  1.0000
  H   H74       1.0  0.12385224510521177  0.6128791522226928  0.9311707605624369  1.0000
  H   H75       1.0  0.12385219566733376  0.8871210186041958  0.4311706441236495  1.0000
  H   H76       1.0  0.8761478281325549  0.38712112312535973  0.0688287665749044  1.0000
  H   H77       1.0  0.15628508889619647  0.1264110855718367  0.4974135219372337  1.0000
  H   H78       1.0  0.8437148924287007  0.6264112968762721  0.0025858784851181347  1.0000
  H   H79       1.0  0.8437151002207426  0.873589516699341  0.5025859552980604  1.0000
  H   H80       1.0  0.1562851443849625  0.37358898176297267  0.9974136768046463  1.0000
  H   H81       1.0  0.9887887467619176  0.3703971898456082  0.5458924032939458  1.0000
  H   H82       1.0  0.011211314647956865  0.870396973660624  0.9541072331793501  1.0000
  H   H83       1.0  0.011211499686133561  0.6296035374900327  0.45410742879542393  1.0000
  H   H84       1.0  0.9887887739842378  0.12960330826975086  0.04589235750310495  1.0000
  H   H85       1.0  0.11328994812670383  0.32344844806555156  0.5762191517271782  1.0000
  H   H86       1.0  0.8867100546984401  0.8234486271057015  0.9237804862275627  1.0000
  H   H87       1.0  0.8867102829428187  0.6765519830645322  0.4237806291881575  1.0000
  H   H88       1.0  0.11329002806817119  0.17655165153350955  0.07621907943371437  1.0000
  H   H89       1.0  0.027812657675171357  0.28572808974518904  0.6395646118546743  1.0000
  H   H90       1.0  0.9721874264580693  0.7857280783359417  0.8604349335285355  1.0000
  H   H91       1.0  0.9721874572675098  0.7142720594411763  0.3604350251496303  1.0000
  H   H92       1.0  0.027812677447365496  0.21427219372091  0.1395646258543396  1.0000
  C   C1        1.0  0.7097699168304881  0.5737573500393673  0.24016533716314314  1.0000
  C   C2        1.0  0.2902296680480171  0.07375785834776225  0.25983448050513247  1.0000
  C   C3        1.0  0.2902287102810855  0.42624523022743965  0.7598363796244544  1.0000
  C   C4        1.0  0.7097701383844619  0.926242471853345  0.7401651111831643  1.0000
  C   C5        1.0  0.677579178517636  0.6053377530921386  0.09125580140812384  1.0000
  C   C6        1.0  0.3224208078139872  0.10533823749790042  0.4087439511657343  1.0000
  C   C7        1.0  0.3224194014517329  0.3946621613246928  0.9087449736451323  1.0000
  C   C8        1.0  0.6775796430804767  0.8946620411410773  0.5912555214360168  1.0000
  C   C9        1.0  0.7090355625204917  0.6662490365789795  0.16799332368908032  1.0000
  C   C10       1.0  0.29096408132675927  0.16624951770754173  0.3320064731144008  1.0000
  C   C11       1.0  0.29096266867708737  0.3337523676423607  0.8320078553431103  1.0000
  C   C12       1.0  0.7090359457516708  0.8337511843960238  0.6679928822386689  1.0000
  C   C13       1.0  0.6268509287560133  0.568803930311393  0.2768220708012783  1.0000
  C   C14       1.0  0.3731488329342131  0.06880435228452358  0.22317785156293599  1.0000
  C   C15       1.0  0.37314959370579914  0.4311993652355851  0.7231803385290578  1.0000
  C   C16       1.0  0.626851072850988  0.9311964112542761  0.7768218821294512  1.0000
  C   C17       1.0  0.7408312931358513  0.8129554199288408  0.17697686340784247  1.0000
  C   C18       1.0  0.25916866859184495  0.3129560867750208  0.3230229187133664  1.0000
  C   C19       1.0  0.2591676351575212  0.18704507044320265  0.8230231577423415  1.0000
  C   C20       1.0  0.7408316563103527  0.6870444628372687  0.676976678853721  1.0000
  C   C21       1.0  0.6270085524651161  0.4748934761377649  0.3454920981988155  1.0000
  C   C22       1.0  0.37299146205793315  0.9748940131397319  0.1545080471831308  1.0000
  C   C23       1.0  0.37299255110194324  0.5251091864064124  0.6545108281458913  1.0000
  C   C24       1.0  0.6270086297654736  0.025106742719520972  0.8454917583648471  1.0000
  C   C25       1.0  0.7943376023987897  0.4931540075109847  0.27175296211910616  1.0000
  C   C26       1.0  0.20566223527538874  0.9931544656314492  0.22824677763466145  1.0000
  C   C27       1.0  0.205662020960152  0.5068471718126726  0.7282477367146225  1.0000
  C   C28       1.0  0.7943380464772644  0.006844861858493922  0.7717532911792647  1.0000
  C   C29       1.0  0.7453110486933796  0.8999201730062933  0.10654489535661296  1.0000
  C   C30       1.0  0.2546893050450748  0.3999209182110887  0.39345482900040313  1.0000
  C   C31       1.0  0.2546885908151496  0.10008005955666201  0.8934553164332311  1.0000
  C   C32       1.0  0.7453113787654869  0.6000797049037966  0.606544879102281  1.0000
  C   C33       1.0  0.7105256572091883  0.3917724827738124  0.3751104629033505  1.0000
  C   C34       1.0  0.28947451532840734  0.8917731448683202  0.12488951943717812  1.0000
  C   C35       1.0  0.2894737543192579  0.6082252528859347  0.6248899517363697  1.0000
  C   C36       1.0  0.7105256564175703  0.10822756491450235  0.8751100594638154  1.0000
  C   C37       1.0  0.7947717877216841  0.40096045818466197  0.3410582101790698  1.0000
  C   C38       1.0  0.20522821252008452  0.9009609374703141  0.1589415874874557  1.0000
  C   C39       1.0  0.20522848131792434  0.5990402614714408  0.6589421818631058  1.0000
  C   C40       1.0  0.794771740333621  0.09903941467187102  0.8410578881650814  1.0000
  C   C41       1.0  0.5428783422653899  0.6569868378693337  0.24861517498346222  1.0000
  C   C42       1.0  0.4571216534876802  0.15698683741898042  0.25138437617612597  1.0000
  C   C43       1.0  0.45712103673622373  0.3430164456109279  0.7513866071522175  1.0000
  C   C44       1.0  0.5428785496282441  0.8430137505904137  0.7486152138714277  1.0000
  C   C45       1.0  0.6779779784056945  0.6947105944658507  0.02100261934752706  1.0000
  C   C46       1.0  0.32202241518416835  0.19471112427257553  0.47899707270738046  1.0000
  C   C47       1.0  0.32202136752776406  0.3052882931043986  0.9789983921869139  1.0000
  C   C48       1.0  0.6779783942941457  0.8052894758040919  0.5210022565289227  1.0000
  C   C49       1.0  0.768052929406983  0.879374100478661  0.2539579954811777  1.0000
  C   C50       1.0  0.2319468729175706  0.37937463765613794  0.24604173960153725  1.0000
  C   C51       1.0  0.23194705738358673  0.12062767783844384  0.746041788548448  1.0000
  C   C52       1.0  0.7680531011426275  0.6206259558387165  0.753957782791344  1.0000
  C   C53       1.0  0.8805811218361901  0.5010069150038514  0.23763209165118768  1.0000
  C   C54       1.0  0.11941874130812079  0.0010071226530980232  0.26236749942446497  1.0000
  C   C55       1.0  0.11941727615362367  0.4989940602682087  0.76236722273357  1.0000
  C   C56       1.0  0.8805812451577434  0.9989931285597443  0.7376320301152169  1.0000
  C   C57       1.0  0.5426760664953448  0.4748185149612223  0.38228485029021425  1.0000
  C   C58       1.0  0.4573238162920404  0.9748183515854915  0.11771545337339735  1.0000
  C   C59       1.0  0.45732425519398323  0.5251872061803844  0.61771794086674  1.0000
  C   C60       1.0  0.5426762656391542  0.025181970935924718  0.8822845998435487  1.0000
  C   C61       1.0  0.8820798972141521  0.323314943597863  0.373098003534031  1.0000
  C   C62       1.0  0.11792018842748664  0.823315254713149  0.12690172265021346  1.0000
  C   C63       1.0  0.11792153084619206  0.6766863443332786  0.6269026387114558  1.0000
  C   C64       1.0  0.8820796702457748  0.17668497346159967  0.8730976641875335  1.0000
  C   C65       1.0  0.6448811731897105  0.4570091064870388  0.08074578690573456  1.0000
  C   C66       1.0  0.3551187704039113  0.9570095065781586  0.4192539261671333  1.0000
  C   C67       1.0  0.35511845580568696  0.5429906148469659  0.9192547572746017  1.0000
  C   C68       1.0  0.6448815661784018  0.042990618472791224  0.5807456813837291  1.0000
  C   C69       1.0  0.46335962706530376  0.6533490478647954  0.28585746934413786  1.0000
  C   C70       1.0  0.5366403173573807  0.15334879376087998  0.21414234263689486  1.0000
  C   C71       1.0  0.5366387975268264  0.3466525461477302  0.7141421199322106  1.0000
  C   C72       1.0  0.46335986503752546  0.8466517097750151  0.7858575806381761  1.0000
  C   C73       1.0  0.46356281113762493  0.5616497937313256  0.35360743998485583  1.0000
  C   C74       1.0  0.5364378842303389  0.0616489235226577  0.146393175878827  1.0000
  C   C75       1.0  0.5364377051855342  0.4383524585140775  0.6463935890281466  1.0000
  C   C76       1.0  0.4635629946914828  0.9383509777279385  0.853607427064271  1.0000
  C   C77       1.0  0.7136133433340384  0.8386889545910929  0.030551338254175605  1.0000
  C   C78       1.0  0.28638732622273533  0.3386897568123687  0.4694484298285593  1.0000
  C   C79       1.0  0.28638634988866946  0.16131010521706587  0.9694492508220779  1.0000
  C   C80       1.0  0.7136136841559246  0.6613113742400256  0.5305511890434077  1.0000
  C   C81       1.0  0.6139221385333159  0.40047397343764085  0.005485955048252951  1.0000
  C   C82       1.0  0.3860780821237817  0.9004742607298241  0.49451375591403535  1.0000
  C   C83       1.0  0.3860773821963701  0.5995249777618701  0.9945148904858384  1.0000
  C   C84       1.0  0.613922369303692  0.0995255823772796  0.505485563041843  1.0000
  C   C85       1.0  0.9639360210862417  0.3349418707978741  0.33906760586740253  1.0000
  C   C86       1.0  0.03606409154318368  0.8349421340589677  0.1609321652348025  1.0000
  C   C87       1.0  0.03606430384107554  0.665060416553685  0.6609325824557475  1.0000
  C   C88       1.0  0.963935874519964  0.16505814896855947  0.8390673759936786  1.0000
  C   C89       1.0  0.6446561322672066  0.6315200916087598  0.9439281171877902  1.0000
  C   C90       1.0  0.35534431193947885  0.13152048263880453  0.5560715712294008  1.0000
  C   C91       1.0  0.3553435157942418  0.36847961656040107  0.056073081247434556  1.0000
  C   C92       1.0  0.6446564462494245  0.8684800757497464  0.44392756602280753  1.0000
  C   C93       1.0  0.9630363947275533  0.4242358913703501  0.27019213564752953  1.0000
  C   C94       1.0  0.03696371755770285  0.9242361066792636  0.22980755258051472  1.0000
  C   C95       1.0  0.03696189665019157  0.5757638387414409  0.7298064914304466  1.0000
  C   C96       1.0  0.9630363498385507  0.0757642224246215  0.7701919683867618  1.0000
  C   C97       1.0  0.7790945368838713  0.04806426392282232  0.11729915737053721  1.0000
  C   C98       1.0  0.22090573117369777  0.548065036127493  0.3827004531144929  1.0000
  C   C99       1.0  0.22090529510814452  0.9519354738669831  0.8827010341742529  1.0000
  C   C100      1.0  0.7790947809951799  0.45193507575866904  0.6172990362614476  1.0000
  C   C101      1.0  0.7975009090844232  0.02302292982110018  0.2615181951350217  1.0000
  C   C102      1.0  0.2024990327756106  0.5230236468596597  0.2384814036260511  1.0000
  C   C103      1.0  0.20249934396735267  0.9769785347373027  0.7384816691531366  1.0000
  C   C104      1.0  0.7975008600945687  0.47697664823559743  0.7615179241006272  1.0000
  C   C105      1.0  0.8037424965854125  0.10838443030768985  0.1924526955305624  1.0000
  C   C106      1.0  0.19625761592252014  0.6083851914042543  0.3075468698675569  1.0000
  C   C107      1.0  0.19625718758880892  0.8916162059725581  0.8075470900009886  1.0000
  C   C108      1.0  0.8037425608071483  0.39161471094411876  0.6924526143593925  1.0000
  C   C109      1.0  0.6139229815275316  0.4882669421007375  0.936245277487595  1.0000
  C   C110      1.0  0.38607737594432723  0.9882671759187581  0.5637544054542272  1.0000
  C   C111      1.0  0.38607636658613437  0.5117330875064549  0.0637562992082535  1.0000
  C   C112      1.0  0.6139230794826804  0.011733085167388269  0.43624461960399696  1.0000
  C   C113      1.0  0.019145861106440825  0.13882948797526834  0.5383308973010659  1.0000
  C   C114      1.0  0.980854269839238  0.6388293987559107  0.9616686398969078  1.0000
  C   C115      1.0  0.9808542718106367  0.86117117463413  0.4616685397667124  1.0000
  C   C116      1.0  0.01914579392913373  0.36117092925091615  0.0383308952551928  1.0000
  C   C117      1.0  0.9312866122243032  0.0642982882844588  0.5387423618804099  1.0000
  C   C118      1.0  0.06871352426715642  0.564298036145126  0.9612572111143629  1.0000
  C   C119      1.0  0.06871351773626  0.935702407236679  0.46125704412020474  1.0000
  C   C120      1.0  0.9312865343815386  0.4357022699205531  0.03874231208522915  1.0000
  C   C121      1.0  0.08731092005021845  0.07149677848880356  0.4988177856115769  1.0000
  C   C122      1.0  0.9126890595071016  0.5714968221200598  0.001181626955212562  1.0000
  C   C123      1.0  0.9126892018612492  0.928503940070556  0.5011815985768738  1.0000
  C   C124      1.0  0.08731099330837608  0.428503488333854  0.9988178965543927  1.0000
  C   C125      1.0  0.03859114400303031  0.28662499290126087  0.577058812045718  1.0000
  C   C126      1.0  0.9614088790531776  0.7866250181051422  0.9229407435699426  1.0000
  C   C127      1.0  0.961409055558055  0.7133755117317357  0.4229408493291252  1.0000
  C   C128      1.0  0.038591213903857106  0.21337530770754587  0.07705880770501432  1.0000
