data_image0
_chemical_formula_structural       H28C48N8O12F8
_chemical_formula_sum              "H28 C48 N8 O12 F8"
_cell_length_a       10.354494050641902
_cell_length_b       15.336438507607953
_cell_length_c       6.7094169575841764
_cell_angle_alpha    90.0
_cell_angle_beta     93.14699627714258
_cell_angle_gamma    90.0

_space_group_name_H-M_alt    "P 1"
_space_group_IT_number       1

loop_
  _space_group_symop_operation_xyz
  'x, y, z'

loop_
  _atom_site_type_symbol
  _atom_site_label
  _atom_site_symmetry_multiplicity
  _atom_site_fract_x
  _atom_site_fract_y
  _atom_site_fract_z
  _atom_site_occupancy
  H   H1        1.0  0.5779862604360838  0.3007296157913106  0.5319745251889626  1.0000
  H   H2        1.0  0.42201374003883074  0.8007296155432754  0.9680254761777012  1.0000
  H   H3        1.0  0.4220137400779605  0.6992703843646609  0.4680254759581796  1.0000
  H   H4        1.0  0.5779862604752136  0.1992703846126961  0.031974524969441025  1.0000
  H   H5        1.0  0.8035252751796388  0.2824489230567541  0.5469809425119276  1.0000
  H   H6        1.0  0.19647472433071816  0.7824489228087188  0.9530190572784784  1.0000
  H   H7        1.0  0.1964747243698479  0.7175510770992173  0.4530190570589567  1.0000
  H   H8        1.0  0.8035252752187686  0.21755107734725251  0.046980942292406055  1.0000
  H   H9        1.0  0.591374787596032  0.5555528531460142  0.5692706055609542  1.0000
  H   H10       1.0  0.40862521191432494  0.0555528533940495  0.9307293942294516  1.0000
  H   H11       1.0  0.40862521195345475  0.44444714700995713  0.4307293940099301  1.0000
  H   H12       1.0  0.5913747876351617  0.9444471467619219  0.06927060534143269  1.0000
  H   H13       1.0  0.04617228870442321  0.5999344453691595  0.8408720631121134  1.0000
  H   H14       1.0  0.9538277108059339  0.09993444496515298  0.6591279366782925  1.0000
  H   H15       1.0  0.9538277108450633  0.4000655547868118  0.15912793645877102  1.0000
  H   H16       1.0  0.046172288743552954  0.9000655545387766  0.34087206289259175  1.0000
  H   H17       1.0  0.08835599078174988  0.4365742683138959  0.7869115678318799  1.0000
  H   H18       1.0  0.9116440087286072  0.9365742687179025  0.713088431958526  1.0000
  H   H19       1.0  0.9116440087677367  0.5634257318420755  0.21308843173900455  1.0000
  H   H20       1.0  0.08835599081821816  0.06342573143806889  0.28691156910256954  1.0000
  H   H21       1.0  0.8951268155316772  0.7246435490539049  0.8107313642832408  1.0000
  H   H22       1.0  0.10487318397867977  0.22464354930194008  0.6892686355071651  1.0000
  H   H23       1.0  0.10487318401780951  0.27535645045002466  0.18926863528764362  1.0000
  H   H24       1.0  0.895126815570807  0.7753564508540313  0.31073136406371915  1.0000
  H   H25       1.0  0.6679523790181139  0.7028623382575202  0.6752551288290586  1.0000
  H   H26       1.0  0.33204762049224307  0.20286233850555543  0.8247448709613473  1.0000
  H   H27       1.0  0.33204762053137277  0.29713766189845126  0.3247448707418258  1.0000
  H   H28       1.0  0.6679523790572436  0.797137661650416  0.17525512860953693  1.0000
  C   C1        1.0  0.5540063367161577  0.0855754313068804  0.5064999626329865  1.0000
  C   C2        1.0  0.44599366376141836  0.5855754310588451  0.9935000372434659  1.0000
  C   C3        1.0  0.4459936638005481  0.914424568849091  0.49350003702394435  1.0000
  C   C4        1.0  0.5540063367552874  0.41442456909712627  0.006499962413464888  1.0000
  C   C5        1.0  0.37848985014704484  0.9863569375964206  0.4130200816508072  1.0000
  C   C6        1.0  0.6215101504087908  0.4863569378444558  0.08697991778660205  1.0000
  C   C7        1.0  0.6215101503696611  0.013643062559550851  0.5869799180061236  1.0000
  C   C8        1.0  0.3784898501079151  0.5136430623115156  0.9130200818703287  1.0000
  C   C9        1.0  0.43074161449242604  0.06986095301516719  0.41801647445942414  1.0000
  C   C10       1.0  0.5692583860607481  0.5698609534191739  0.08198352646819645  1.0000
  C   C11       1.0  0.5692583860242798  0.9301390464887624  0.5819835251975066  1.0000
  C   C12       1.0  0.4307416144532963  0.4301390467367976  0.9180164746789458  1.0000
  C   C13       1.0  0.6147368973914557  0.17405338069042628  0.5140308947005466  1.0000
  C   C14       1.0  0.3852631030861205  0.6740533804423909  0.9859691051759057  1.0000
  C   C15       1.0  0.3852631031252502  0.8259466194655452  0.4859691049563842  1.0000
  C   C16       1.0  0.6147368974305853  0.32594661971358035  0.014030894481025126  1.0000
  C   C17       1.0  0.7367826480492626  0.407489935613137  0.5827188818743252  1.0000
  C   C18       1.0  0.2632173524283135  0.9074899353651018  0.9172811180021272  1.0000
  C   C19       1.0  0.2632173524674432  0.5925100645428345  0.4172811177826056  1.0000
  C   C20       1.0  0.7367826480883923  0.09251006413882777  0.08271888165480368  1.0000
  C   C21       1.0  0.9056510437217528  0.506158900982726  0.7196404302537884  1.0000
  C   C22       1.0  0.0943489557886042  0.006158900578719327  0.7803595695366173  1.0000
  C   C23       1.0  0.09434895582773392  0.4938410991732454  0.2803595693170958  1.0000
  C   C24       1.0  0.9056510437608823  0.9938410989252102  0.2196404300342669  1.0000
  C   C25       1.0  0.7762395401531653  0.49449086084999044  0.6432322816262679  1.0000
  C   C26       1.0  0.2237604593571916  0.9944908612539971  0.8567677181641379  1.0000
  C   C27       1.0  0.22376045939632136  0.5055091386539391  0.35676771794461637  1.0000
  C   C28       1.0  0.7762395401922951  0.005509138901974323  0.14323228140674638  1.0000
  C   C29       1.0  0.6904996674682892  0.565485740101772  0.6280336762484541  1.0000
  C   C30       1.0  0.30950033204206784  0.06548574034980727  0.8719663235419517  1.0000
  C   C31       1.0  0.30950033208119754  0.43451426005419935  0.37196632332243024  1.0000
  C   C32       1.0  0.6904996675074189  0.9345142598061642  0.12803367602893256  1.0000
  C   C33       1.0  0.947059589800642  0.5900008176938407  0.781863520843926  1.0000
  C   C34       1.0  0.05294041067693404  0.09000081728983414  0.7181364790325265  1.0000
  C   C35       1.0  0.05294041071606377  0.40999918246213063  0.2181364788130049  1.0000
  C   C36       1.0  0.9470595898397718  0.9099991828661372  0.2818635206244044  1.0000
  C   C37       1.0  0.988728146935241  0.4312743546501285  0.7281226888659982  1.0000
  C   C38       1.0  0.011271853542335154  0.9312743544020933  0.7718773110104541  1.0000
  C   C39       1.0  0.011271853581464887  0.5687256455058429  0.2718773107909326  1.0000
  C   C40       1.0  0.9887281469743706  0.06872564575387816  0.22812268864647667  1.0000
  C   C41       1.0  0.8618130952946166  0.6597137487286195  0.7653033956757291  1.0000
  C   C42       1.0  0.13818690518295954  0.159713748324613  0.7346966042007234  1.0000
  C   C43       1.0  0.13818690522208926  0.3402862514273518  0.23469660398120173  1.0000
  C   C44       1.0  0.8618130943665272  0.8402862511793165  0.265303395370161  1.0000
  C   C45       1.0  0.7338303539260146  0.6475323143031939  0.6878515292182344  1.0000
  C   C46       1.0  0.2661696455843423  0.14753231389918728  0.8121484705721714  1.0000
  C   C47       1.0  0.266169645623472  0.3524676858527775  0.31214847035265  1.0000
  C   C48       1.0  0.7338303539651444  0.8524676856047423  0.1878515289987128  1.0000
  N   N1        1.0  0.8305463331837745  0.34529672696649866  0.5900871651079524  1.0000
  N   N2        1.0  0.16945366632392095  0.8452967273705053  0.9099128361726647  1.0000
  N   N3        1.0  0.1694536663630507  0.6547032725374309  0.4099128359531432  1.0000
  N   N4        1.0  0.8305463332229043  0.15470327278546608  0.09008716488843088  1.0000
  N   N5        1.0  0.9536501735279104  0.3537455281621427  0.6652259665973507  1.0000
  N   N6        1.0  0.046349825982446524  0.8537455285661494  0.8347740331930552  1.0000
  N   N7        1.0  0.0463498260189148  0.6462544719938287  0.334774034463745  1.0000
  N   N8        1.0  0.9536501735670401  0.14625447158982202  0.1652259663778291  1.0000
  O   O1        1.0  0.5332072146992676  0.23767469208654812  0.5414416618372395  1.0000
  O   O2        1.0  0.4667927857783085  0.7376746924905547  0.9585583380392128  1.0000
  O   O3        1.0  0.4667927858147768  0.7623253074173815  0.4585583393099026  1.0000
  O   O4        1.0  0.5332072137711782  0.2623253076654167  0.041441661531671496  1.0000
  O   O5        1.0  0.7327159960253634  0.18202142620108244  0.4953932513173771  1.0000
  O   O6        1.0  0.26728400452781076  0.682021426605089  0.00460674961024353  1.0000
  O   O7        1.0  0.26728400449134243  0.8179785733028471  0.5046067483395538  1.0000
  O   O8        1.0  0.7327159959862337  0.3179785735508823  0.9953932515368985  1.0000
  O   O9        1.0  0.6212322908602981  0.3880287980190378  0.5241514309640627  1.0000
  O   O10       1.0  0.3787677086500588  0.8880287977710026  0.9758485688263433  1.0000
  O   O11       1.0  0.3787677086865271  0.6119712021369337  0.475848570097033  1.0000
  O   O12       1.0  0.6212322908994278  0.11197120238496887  0.024151430744541107  1.0000
  F   F1        1.0  0.3594104731673032  0.13467168723530068  0.3325057679838529  1.0000
  F   F2        1.0  0.6405895273858709  0.6346716876393073  0.16749423294376778  1.0000
  F   F3        1.0  0.6405895273467411  0.8653283122686288  0.6674942331632893  1.0000
  F   F4        1.0  0.3594104731308349  0.3653283125166641  0.832505766713163  1.0000
  F   F5        1.0  0.2590217984487953  0.9762961226344946  0.3252006119813892  1.0000
  F   F6        1.0  0.7409782011398212  0.47629612223048795  0.17479938736997355  1.0000
  F   F7        1.0  0.7409782011006915  0.023703877521476843  0.6747993875894951  1.0000
  F   F8        1.0  0.2590217984096655  0.5237038772734416  0.8252006122009107  1.0000
