data_image0
_chemical_formula_structural       H144C96N24O24S8
_chemical_formula_sum              "H144 C96 N24 O24 S8"
_cell_length_a       13.171742535747411
_cell_length_b       12.605632933998095
_cell_length_c       17.758095816385836
_cell_angle_alpha    90.0
_cell_angle_beta     90.0
_cell_angle_gamma    90.0

_space_group_name_H-M_alt    "P 1"
_space_group_IT_number       1

loop_
  _space_group_symop_operation_xyz
  'x, y, z'

loop_
  _atom_site_type_symbol
  _atom_site_label
  _atom_site_symmetry_multiplicity
  _atom_site_fract_x
  _atom_site_fract_y
  _atom_site_fract_z
  _atom_site_occupancy
  H   H1        1.0  0.15976084821647277  0.40764649319121415  0.46210693617431614  1.0000
  H   H2        1.0  0.6597608483779013  0.40764649319121415  0.03789306392744488  1.0000
  H   H3        1.0  0.34023915194495574  0.9076464934292786  0.46210693617431614  1.0000
  H   H4        1.0  0.15976084821647277  0.09235350704685019  0.9621069362760771  1.0000
  H   H5        1.0  0.8402391521063843  0.5923535064916184  0.5378930640292059  1.0000
  H   H6        1.0  0.34023915194495574  0.5923535064916184  0.9621069362760771  1.0000
  H   H7        1.0  0.6597608483779013  0.09235350704685019  0.5378930640292059  1.0000
  H   H8        1.0  0.8402391521063843  0.9076464934292786  0.03789306392744488  1.0000
  H   H9        1.0  0.9183006839962995  0.6297634772934917  0.413285054089413  1.0000
  H   H10       1.0  0.418300683834871  0.6297634772934917  0.08671494544922452  1.0000
  H   H11       1.0  0.581699316487986  0.12976347705542726  0.413285054089413  1.0000
  H   H12       1.0  0.9183006839962995  0.8702365226274054  0.9132850541911741  1.0000
  H   H13       1.0  0.08169931632655748  0.37023652318263717  0.5867149455509855  1.0000
  H   H14       1.0  0.581699316487986  0.37023652318263717  0.9132850541911741  1.0000
  H   H15       1.0  0.418300683834871  0.8702365226274054  0.5867149455509855  1.0000
  H   H16       1.0  0.08169931632655748  0.12976347705542726  0.08671494544922452  1.0000
  H   H17       1.0  0.7933059852666696  0.5730646154638451  0.21182239238337214  1.0000
  H   H18       1.0  0.29330598510524103  0.5730646154638451  0.2881776077183889  1.0000
  H   H19       1.0  0.706694015217616  0.07306461522578071  0.21182239238337214  1.0000
  H   H20       1.0  0.7933059852666696  0.9269353844570519  0.7118223924851331  1.0000
  H   H21       1.0  0.20669401505618745  0.42693538501228373  0.7881776078201499  1.0000
  H   H22       1.0  0.706694015217616  0.42693538501228373  0.7118223924851331  1.0000
  H   H23       1.0  0.29330598510524103  0.9269353844570519  0.7881776078201499  1.0000
  H   H24       1.0  0.20669401505618745  0.07306461522578071  0.2881776077183889  1.0000
  H   H25       1.0  0.9120389513685808  0.5720943476427813  0.2564395545043756  1.0000
  H   H26       1.0  0.41203895120715234  0.5720943476427813  0.2435604455973854  1.0000
  H   H27       1.0  0.5879610483565038  0.07209434740471694  0.2564395545043756  1.0000
  H   H28       1.0  0.9120389513685808  0.9279056530714118  0.7564395540430131  1.0000
  H   H29       1.0  0.08796104819507519  0.42790565283334747  0.7435604456991464  1.0000
  H   H30       1.0  0.5879610483565038  0.42790565283334747  0.7564395540430131  1.0000
  H   H31       1.0  0.41203895120715234  0.9279056530714118  0.7435604456991464  1.0000
  H   H32       1.0  0.08796104819507519  0.07209434740471694  0.2435604455973854  1.0000
  H   H33       1.0  0.7902266652837652  0.850824553289473  0.18076680817534416  1.0000
  H   H34       1.0  0.2902266651223366  0.850824553289473  0.31923319192641686  1.0000
  H   H35       1.0  0.7097733352005204  0.3508245538447049  0.18076680817534416  1.0000
  H   H36       1.0  0.7902266652837652  0.6491754466314238  0.6807668082771051  1.0000
  H   H37       1.0  0.20977333503909196  0.1491754463933595  0.8192331920281779  1.0000
  H   H38       1.0  0.7097733352005204  0.1491754463933595  0.6807668082771051  1.0000
  H   H39       1.0  0.2902266651223366  0.6491754466314238  0.8192331920281779  1.0000
  H   H40       1.0  0.20977333503909196  0.3508245538447049  0.31923319192641686  1.0000
  H   H41       1.0  0.7189736243552101  0.7321783307768174  0.17623124136498375  1.0000
  H   H42       1.0  0.2189736241937815  0.7321783307768174  0.3237687587367773  1.0000
  H   H43       1.0  0.7810263753698746  0.23217833053875295  0.17623124136498375  1.0000
  H   H44       1.0  0.7189736243552101  0.7678216691440797  0.6762312414667447  1.0000
  H   H45       1.0  0.281026375967647  0.2678216696993114  0.8237687582754148  1.0000
  H   H46       1.0  0.7810263753698746  0.2678216696993114  0.6762312414667447  1.0000
  H   H47       1.0  0.2189736241937815  0.7678216691440797  0.8237687582754148  1.0000
  H   H48       1.0  0.281026375967647  0.23217833053875295  0.3237687587367773  1.0000
  H   H49       1.0  0.9501566763876806  0.8503807215493857  0.2385254474239046  1.0000
  H   H50       1.0  0.45015667622625216  0.8503807215493857  0.2614745526778564  1.0000
  H   H51       1.0  0.5498433233374039  0.3503807213113213  0.2385254474239046  1.0000
  H   H52       1.0  0.9501566763876806  0.6496192783715113  0.7385254475256656  1.0000
  H   H53       1.0  0.049843323935176403  0.14961927813344694  0.7614745527796174  1.0000
  H   H54       1.0  0.5498433233374039  0.14961927813344694  0.7385254475256656  1.0000
  H   H55       1.0  0.45015667622625216  0.6496192783715113  0.7614745527796174  1.0000
  H   H56       1.0  0.049843323935176403  0.3503807213113213  0.2614745526778564  1.0000
  H   H57       1.0  0.998618271219771  0.7311012702221361  0.2757106071858364  1.0000
  H   H58       1.0  0.4986182710583424  0.7311012702221361  0.22428939291592462  1.0000
  H   H59       1.0  0.5013817285053137  0.2311012699840717  0.2757106071858364  1.0000
  H   H60       1.0  0.998618271219771  0.7688987296987609  0.775710606724474  1.0000
  H   H61       1.0  0.001381728343885161  0.2688987302539927  0.7242893930176856  1.0000
  H   H62       1.0  0.5013817285053137  0.2688987302539927  0.775710606724474  1.0000
  H   H63       1.0  0.4986182710583424  0.7688987296987609  0.7242893930176856  1.0000
  H   H64       1.0  0.001381728343885161  0.2311012699840717  0.22428939291592462  1.0000
  H   H65       1.0  0.8517193590410106  0.11920631180265549  0.3174120479065632  1.0000
  H   H66       1.0  0.3517193596387831  0.11920631180265549  0.18258795219519783  1.0000
  H   H67       1.0  0.648280640684074  0.6192063120407199  0.3174120479065632  1.0000
  H   H68       1.0  0.8517193590410106  0.38079368764211274  0.8174120480083242  1.0000
  H   H69       1.0  0.14828064052264542  0.8807936878801772  0.6825879522969588  1.0000
  H   H70       1.0  0.648280640684074  0.8807936878801772  0.8174120480083242  1.0000
  H   H71       1.0  0.3517193596387831  0.38079368764211274  0.6825879522969588  1.0000
  H   H72       1.0  0.14828064052264542  0.6192063120407199  0.18258795219519783  1.0000
  H   H73       1.0  0.8579128789779968  0.253710325911072  0.5397361861937906  1.0000
  H   H74       1.0  0.3579128795757692  0.253710325911072  0.9602638135483689  1.0000
  H   H75       1.0  0.6420871207470877  0.7537103261491364  0.5397361861937906  1.0000
  H   H76       1.0  0.8579128789779968  0.24628967353369619  0.03973618665515304  1.0000
  H   H77       1.0  0.14208712058565928  0.7462896737717606  0.460263813446608  1.0000
  H   H78       1.0  0.6420871207470877  0.7462896737717606  0.03973618665515304  1.0000
  H   H79       1.0  0.3579128795757692  0.24628967353369619  0.460263813446608  1.0000
  H   H80       1.0  0.14208712058565928  0.7537103261491364  0.9602638135483689  1.0000
  H   H81       1.0  0.8663386555750415  0.9395629733162107  0.37163120743556927  1.0000
  H   H82       1.0  0.36633865541361305  0.9395629733162107  0.12836879210306829  1.0000
  H   H83       1.0  0.633661344150043  0.4395629738714425  0.37163120743556927  1.0000
  H   H84       1.0  0.8663386555750415  0.5604370266046863  0.8716312075373304  1.0000
  H   H85       1.0  0.1336613447478155  0.06043702636662188  0.6283687922048293  1.0000
  H   H86       1.0  0.633661344150043  0.06043702636662188  0.8716312075373304  1.0000
  H   H87       1.0  0.36633865541361305  0.5604370266046863  0.6283687922048293  1.0000
  H   H88       1.0  0.1336613447478155  0.4395629738714425  0.12836879210306829  1.0000
  H   H89       1.0  0.8721125393108949  0.07384020579320326  0.5940385179286048  1.0000
  H   H90       1.0  0.3721125391494664  0.07384020579320326  0.9059614823766782  1.0000
  H   H91       1.0  0.6278874604141896  0.5738402060312676  0.5940385179286048  1.0000
  H   H92       1.0  0.8721125393108949  0.426159793651565  0.0940385178268438  1.0000
  H   H93       1.0  0.12788746025276113  0.9261597938896293  0.40596148227491724  1.0000
  H   H94       1.0  0.6278874604141896  0.9261597938896293  0.0940385178268438  1.0000
  H   H95       1.0  0.3721125391494664  0.426159793651565  0.40596148227491724  1.0000
  H   H96       1.0  0.12788746025276113  0.5738402060312676  0.9059614823766782  1.0000
  H   H97       1.0  0.9197215278936965  0.3347484884014978  0.36847469557869117  1.0000
  H   H98       1.0  0.41972152773226795  0.3347484884014978  0.13152530452306985  1.0000
  H   H99       1.0  0.5802784725905891  0.834748487846266  0.36847469557869117  1.0000
  H   H100      1.0  0.9197215278936965  0.1652515118365666  0.8684746956804522  1.0000
  H   H101      1.0  0.08027847242916057  0.6652515120746311  0.6315253040617075  1.0000
  H   H102      1.0  0.5802784725905891  0.6652515120746311  0.8684746956804522  1.0000
  H   H103      1.0  0.41972152773226795  0.1652515118365666  0.6315253040617075  1.0000
  H   H104      1.0  0.08027847242916057  0.834748487846266  0.13152530452306985  1.0000
  H   H105      1.0  0.821794922017566  0.3685671107770734  0.4324144953038561  1.0000
  H   H106      1.0  0.32179492185613745  0.3685671107770734  0.06758550479790491  1.0000
  H   H107      1.0  0.6782050784667195  0.8685671110151376  0.4324144953038561  1.0000
  H   H108      1.0  0.821794922017566  0.13143288946099105  0.932414495405617  1.0000
  H   H109      1.0  0.17820507830529103  0.6314328889057593  0.5675855048996659  1.0000
  H   H110      1.0  0.6782050784667195  0.6314328889057593  0.932414495405617  1.0000
  H   H111      1.0  0.32179492185613745  0.13143288946099105  0.5675855048996659  1.0000
  H   H112      1.0  0.17820507830529103  0.8685671110151376  0.06758550479790491  1.0000
  H   H113      1.0  0.7918554019480125  0.31209015212473223  0.34344009588981084  1.0000
  H   H114      1.0  0.29185540178658403  0.31209015212473223  0.1565599042119502  1.0000
  H   H115      1.0  0.708144597777072  0.8120901523627966  0.34344009588981084  1.0000
  H   H116      1.0  0.7918554019480125  0.18790984732003604  0.8434400959915719  1.0000
  H   H117      1.0  0.20814459761564347  0.6879098475581005  0.6565599043137113  1.0000
  H   H118      1.0  0.708144597777072  0.6879098475581005  0.8434400959915719  1.0000
  H   H119      1.0  0.29185540178658403  0.18790984732003604  0.6565599043137113  1.0000
  H   H120      1.0  0.20814459761564347  0.8120901523627966  0.1565599042119502  1.0000
  H   H121      1.0  0.8060371906895583  0.8635150235607871  0.5519479544060051  1.0000
  H   H122      1.0  0.30603719052812967  0.8635150235607871  0.9480520453361545  1.0000
  H   H123      1.0  0.6939628097947275  0.3635150233227228  0.5519479544060051  1.0000
  H   H124      1.0  0.8060371906895583  0.6364849763601099  0.051947954304244114  1.0000
  H   H125      1.0  0.19396280963329884  0.13648497691534162  0.44805204523439346  1.0000
  H   H126      1.0  0.6939628097947275  0.13648497691534162  0.051947954304244114  1.0000
  H   H127      1.0  0.30603719052812967  0.6364849763601099  0.44805204523439346  1.0000
  H   H128      1.0  0.19396280963329884  0.3635150233227228  0.9480520453361545  1.0000
  H   H129      1.0  0.9393155990121961  0.8784010210337029  0.5606529046212958  1.0000
  H   H130      1.0  0.43931559960996847  0.8784010210337029  0.9393470956839872  1.0000
  H   H131      1.0  0.5606844007128886  0.37840102079563864  0.5606529046212958  1.0000
  H   H132      1.0  0.9393155990121961  0.6215989788871941  0.06065290451953477  1.0000
  H   H133      1.0  0.06068440055146005  0.1215989794424258  0.43934709558222623  1.0000
  H   H134      1.0  0.5606844007128886  0.1215989794424258  0.06065290451953477  1.0000
  H   H135      1.0  0.43931559960996847  0.6215989788871941  0.43934709558222623  1.0000
  H   H136      1.0  0.06068440055146005  0.37840102079563864  0.9393470956839872  1.0000
  H   H137      1.0  0.8868834194333981  0.823208970492268  0.4772540872417071  1.0000
  H   H138      1.0  0.3868834192719695  0.823208970492268  0.022745912860053903  1.0000
  H   H139      1.0  0.6131165810508875  0.32320897025420364  0.4772540872417071  1.0000
  H   H140      1.0  0.8868834194333981  0.676791029428629  0.9772540873434681  1.0000
  H   H141      1.0  0.11311658088945903  0.17679102998386076  0.5227459129618149  1.0000
  H   H142      1.0  0.6131165810508875  0.17679102998386076  0.9772540873434681  1.0000
  H   H143      1.0  0.3868834192719695  0.676791029428629  0.5227459129618149  1.0000
  H   H144      1.0  0.11311658088945903  0.32320897025420364  0.022745912860053903  1.0000
  C   C1        1.0  0.08955656829751908  0.4469282272058939  0.478575803277181  1.0000
  C   C2        1.0  0.5895565684589475  0.4469282272058939  0.021424196824579956  1.0000
  C   C3        1.0  0.4104434311047085  0.9469282274439583  0.478575803277181  1.0000
  C   C4        1.0  0.08955656829751908  0.05307177223887432  0.9785758028158186  1.0000
  C   C5        1.0  0.910443431266137  0.5530717724769387  0.521424196926341  1.0000
  C   C6        1.0  0.4104434311047085  0.5530717724769387  0.9785758028158186  1.0000
  C   C7        1.0  0.5895565684589475  0.05307177223887432  0.521424196926341  1.0000
  C   C8        1.0  0.910443431266137  0.9469282274439583  0.021424196824579956  1.0000
  C   C9        1.0  0.04288339135592954  0.5201832485788762  0.43075981845652844  1.0000
  C   C10       1.0  0.5428833915173581  0.5201832485788762  0.06924018164523257  1.0000
  C   C11       1.0  0.45711660880549904  0.02018324913410797  0.43075981845652844  1.0000
  C   C12       1.0  0.04288339135592954  0.9798167513420208  0.930759817995166  1.0000
  C   C13       1.0  0.9571166082077265  0.47981675110395644  0.5692401817469935  1.0000
  C   C14       1.0  0.45711660880549904  0.47981675110395644  0.930759817995166  1.0000
  C   C15       1.0  0.5428833915173581  0.9798167513420208  0.5692401817469935  1.0000
  C   C16       1.0  0.9571166082077265  0.02018324913410797  0.06924018164523257  1.0000
  C   C17       1.0  0.9539806214627764  0.5733085548214403  0.45145515616615434  1.0000
  C   C18       1.0  0.4539806213013478  0.5733085548214403  0.04854484393560666  1.0000
  C   C19       1.0  0.5460193782623082  0.07330855537667202  0.45145515616615434  1.0000
  C   C20       1.0  0.9539806214627764  0.9266914450994567  0.9514551562679153  1.0000
  C   C21       1.0  0.0460193781008797  0.4266914448613923  0.5485448440373677  1.0000
  C   C22       1.0  0.5460193782623082  0.4266914448613923  0.9514551562679153  1.0000
  C   C23       1.0  0.4539806213013478  0.9266914450994567  0.5485448440373677  1.0000
  C   C24       1.0  0.0460193781008797  0.07330855537667202  0.04854484393560666  1.0000
  C   C25       1.0  0.859404537347926  0.7186853732323164  0.2247729368774386  1.0000
  C   C26       1.0  0.35940453794569843  0.7186853732323164  0.2752270632243224  1.0000
  C   C27       1.0  0.6405954623771586  0.21868537299425195  0.2247729368774386  1.0000
  C   C28       1.0  0.859404537347926  0.7813146274818769  0.7247729369791996  1.0000
  C   C29       1.0  0.1405954622157301  0.28131462724381245  0.7752270633260834  1.0000
  C   C30       1.0  0.6405954623771586  0.28131462724381245  0.7247729369791996  1.0000
  C   C31       1.0  0.35940453794569843  0.7813146274818769  0.7752270633260834  1.0000
  C   C32       1.0  0.1405954622157301  0.21868537299425195  0.2752270632243224  1.0000
  C   C33       1.0  0.8519574421945105  0.20013343742509304  0.4243356206607978  1.0000
  C   C34       1.0  0.35195744279228297  0.20013343742509304  0.07566437887783982  1.0000
  C   C35       1.0  0.648042557530574  0.7001334368698614  0.4243356206607978  1.0000
  C   C36       1.0  0.8519574421945105  0.2998665628129713  0.9243356207625587  1.0000
  C   C37       1.0  0.14804255736914548  0.7998665630510357  0.5756643789796008  1.0000
  C   C38       1.0  0.648042557530574  0.7998665630510357  0.9243356207625587  1.0000
  C   C39       1.0  0.35195744279228297  0.2998665628129713  0.5756643789796008  1.0000
  C   C40       1.0  0.14804255736914548  0.7001334368698614  0.07566437887783982  1.0000
  C   C41       1.0  0.8551688631500295  0.1098248741057788  0.378388395888696  1.0000
  C   C42       1.0  0.355168862988601  0.1098248741057788  0.12161160364994159  1.0000
  C   C43       1.0  0.6448311373342561  0.609824873550547  0.378388395888696  1.0000
  C   C44       1.0  0.8551688631500295  0.39017512613228555  0.8783883959904569  1.0000
  C   C45       1.0  0.1448311371728275  0.8901751263703499  0.6216116037517025  1.0000
  C   C46       1.0  0.6448311373342561  0.8901751263703499  0.8783883959904569  1.0000
  C   C47       1.0  0.355168862988601  0.39017512613228555  0.6216116037517025  1.0000
  C   C48       1.0  0.1448311371728275  0.609824873550547  0.12161160364994159  1.0000
  C   C49       1.0  0.8684709937925382  0.9928487086312846  0.48713692726096536  1.0000
  C   C50       1.0  0.36847099363110963  0.9928487086312846  0.012863072277672237  1.0000
  C   C51       1.0  0.6315290059325464  0.4928487083932202  0.48713692726096536  1.0000
  C   C52       1.0  0.8684709937925382  0.5071512912896124  0.9871369273627263  1.0000
  C   C53       1.0  0.13152900653031888  0.007151291844844196  0.5128630723794333  1.0000
  C   C54       1.0  0.6315290059325464  0.007151291844844196  0.9871369273627263  1.0000
  C   C55       1.0  0.36847099363110963  0.5071512912896124  0.5128630723794333  1.0000
  C   C56       1.0  0.13152900653031888  0.4928487083932202  0.012863072277672237  1.0000
  C   C57       1.0  0.8582084913458693  0.18488354866452691  0.5024207027741914  1.0000
  C   C58       1.0  0.3582084919436418  0.18488354866452691  0.9975792975310915  1.0000
  C   C59       1.0  0.6417915083792152  0.6848835481092951  0.5024207027741914  1.0000
  C   C60       1.0  0.8582084913458693  0.31511645157353746  0.0024207026724303833  1.0000
  C   C61       1.0  0.14179150821778674  0.8151164518116019  0.49757929742933066  1.0000
  C   C62       1.0  0.6417915083792152  0.8151164518116019  0.0024207026724303833  1.0000
  C   C63       1.0  0.3582084919436418  0.31511645157353746  0.49757929742933066  1.0000
  C   C64       1.0  0.14179150821778674  0.6848835481092951  0.9975792975310915  1.0000
  C   C65       1.0  0.863387015737375  0.008235419081576732  0.4090989904050732  1.0000
  C   C66       1.0  0.36338701557594644  0.008235419081576732  0.0909010096966878  1.0000
  C   C67       1.0  0.6366129839877096  0.5082354193196411  0.4090989904050732  1.0000
  C   C68       1.0  0.863387015737375  0.49176458115648763  0.9090989899437109  1.0000
  C   C69       1.0  0.13661298458548213  0.9917645806012559  0.5909010097984488  1.0000
  C   C70       1.0  0.6366129839877096  0.9917645806012559  0.9090989899437109  1.0000
  C   C71       1.0  0.36338701557594644  0.49176458115648763  0.5909010097984488  1.0000
  C   C72       1.0  0.13661298458548213  0.5082354193196411  0.0909010096966878  1.0000
  C   C73       1.0  0.8665335333592856  0.08335161871691533  0.5330829773575718  1.0000
  C   C74       1.0  0.36653353319785714  0.08335161871691533  0.9669170223845878  1.0000
  C   C75       1.0  0.6334664671249999  0.5833516189549798  0.5330829773575718  1.0000
  C   C76       1.0  0.8665335333592856  0.41664838072785293  0.03308297725581071  1.0000
  C   C77       1.0  0.1334664669635714  0.9166483809659173  0.4669170228459503  1.0000
  C   C78       1.0  0.6334664671249999  0.9166483809659173  0.03308297725581071  1.0000
  C   C79       1.0  0.36653353319785714  0.41664838072785293  0.4669170228459503  1.0000
  C   C80       1.0  0.1334664669635714  0.5833516189549798  0.9669170223845878  1.0000
  C   C81       1.0  0.845643636729949  0.3094065677163077  0.3907363735247705  1.0000
  C   C82       1.0  0.3456436365685205  0.3094065677163077  0.10926362657699054  1.0000
  C   C83       1.0  0.6543563637543366  0.8094065679543722  0.3907363735247705  1.0000
  C   C84       1.0  0.845643636729949  0.1905934325217567  0.8907363736265315  1.0000
  C   C85       1.0  0.15435636359290805  0.6905934327598211  0.6092636266787516  1.0000
  C   C86       1.0  0.6543563637543366  0.6905934327598211  0.8907363736265315  1.0000
  C   C87       1.0  0.3456436365685205  0.1905934325217567  0.6092636266787516  1.0000
  C   C88       1.0  0.15435636359290805  0.8094065679543722  0.10926362657699054  1.0000
  C   C89       1.0  0.8756392640304169  0.8837799211139304  0.5208397778474426  1.0000
  C   C90       1.0  0.37563926386898844  0.8837799211139304  0.9791602218947171  1.0000
  C   C91       1.0  0.6243607364538687  0.38377992087586604  0.5208397778474426  1.0000
  C   C92       1.0  0.8756392640304169  0.6162200788069666  0.020839777745681652  1.0000
  C   C93       1.0  0.1243607362924401  0.11622007856890221  0.47916022235607936  1.0000
  C   C94       1.0  0.6243607364538687  0.11622007856890221  0.020839777745681652  1.0000
  C   C95       1.0  0.37563926386898844  0.6162200788069666  0.47916022235607936  1.0000
  C   C96       1.0  0.1243607362924401  0.38377992087586604  0.9791602218947171  1.0000
  N   N1        1.0  0.8511064864481787  0.6143265094697521  0.23679678347719502  1.0000
  N   N2        1.0  0.35110648628675  0.6143265094697521  0.26320321662456597  1.0000
  N   N3        1.0  0.6488935132769061  0.11432651002498387  0.23679678347719502  1.0000
  N   N4        1.0  0.8511064864481787  0.885673490451145  0.7367967830158326  1.0000
  N   N5        1.0  0.1488935138746785  0.38567349021308056  0.7632032167263271  1.0000
  N   N6        1.0  0.6488935132769061  0.38567349021308056  0.7367967830158326  1.0000
  N   N7        1.0  0.35110648628675  0.885673490451145  0.7632032167263271  1.0000
  N   N8        1.0  0.1488935138746785  0.11432651002498387  0.26320321662456597  1.0000
  N   N9        1.0  0.7850587347829023  0.7706962705377368  0.18902672644116714  1.0000
  N   N10       1.0  0.28505873462147385  0.7706962705377368  0.31097327309747047  1.0000
  N   N11       1.0  0.7149412649421822  0.27069627029967236  0.18902672644116714  1.0000
  N   N12       1.0  0.7850587347829023  0.7293037293831602  0.6890267265429282  1.0000
  N   N13       1.0  0.21494126553995468  0.22930372993839207  0.8109732731992315  1.0000
  N   N14       1.0  0.7149412649421822  0.22930372993839207  0.6890267265429282  1.0000
  N   N15       1.0  0.28505873462147385  0.7293037293831602  0.8109732731992315  1.0000
  N   N16       1.0  0.21494126553995468  0.27069627029967236  0.31097327309747047  1.0000
  N   N17       1.0  0.9410388076110886  0.7713080986022521  0.24959231247700675  1.0000
  N   N18       1.0  0.4410388074496601  0.7713080986022521  0.25040768762475424  1.0000
  N   N19       1.0  0.5589611928731969  0.2713080991574839  0.24959231247700675  1.0000
  N   N20       1.0  0.9410388076110886  0.7286919013186448  0.7495923120156444  1.0000
  N   N21       1.0  0.058961192711768404  0.2286919010805805  0.7504076877265152  1.0000
  N   N22       1.0  0.5589611928731969  0.2286919010805805  0.7495923120156444  1.0000
  N   N23       1.0  0.4410388074496601  0.7286919013186448  0.7504076877265152  1.0000
  N   N24       1.0  0.058961192711768404  0.2713080991574839  0.25040768762475424  1.0000
  O   O1        1.0  0.0963451978017266  0.6593304599235171  0.3298353399239671  1.0000
  O   O2        1.0  0.5963451979631551  0.6593304599235171  0.17016466017779394  1.0000
  O   O3        1.0  0.4036548023597019  0.15933045968545284  0.3298353399239671  1.0000
  O   O4        1.0  0.0963451978017266  0.8406695399973797  0.8298353394626047  1.0000
  O   O5        1.0  0.9036548025211304  0.34066954055261156  0.6701646602795549  1.0000
  O   O6        1.0  0.4036548023597019  0.34066954055261156  0.8298353394626047  1.0000
  O   O7        1.0  0.5963451979631551  0.8406695399973797  0.6701646602795549  1.0000
  O   O8        1.0  0.9036548025211304  0.15933045968545284  0.17016466017779394  1.0000
  O   O9        1.0  0.1943856435890101  0.4947237621984323  0.33715064959135455  1.0000
  O   O10       1.0  0.6943856437504387  0.4947237621984323  0.1628493505104065  1.0000
  O   O11       1.0  0.3056143565724184  0.9947237624364967  0.33715064959135455  1.0000
  O   O12       1.0  0.1943856435890101  0.00527623724633596  0.8371506496931156  1.0000
  O   O13       1.0  0.805614356733847  0.5052762374844003  0.6628493506121675  1.0000
  O   O14       1.0  0.3056143565724184  0.5052762374844003  0.8371506496931156  1.0000
  O   O15       1.0  0.6943856437504387  0.00527623724633596  0.6628493506121675  1.0000
  O   O16       1.0  0.805614356733847  0.9947237624364967  0.1628493505104065  1.0000
  O   O17       1.0  0.021470226830846033  0.4923891202051194  0.28683649658540217  1.0000
  O   O18       1.0  0.5214702262330736  0.4923891202051194  0.21316350351635888  1.0000
  O   O19       1.0  0.4785297733305825  0.9923891204431838  0.28683649658540217  1.0000
  O   O20       1.0  0.021470226830846033  0.0076108792396488555  0.7868364966871632  1.0000
  O   O21       1.0  0.9785297734920111  0.5076108794777132  0.71316350361812  1.0000
  O   O22       1.0  0.4785297733305825  0.5076108794777132  0.7868364966871632  1.0000
  O   O23       1.0  0.5214702262330736  0.0076108792396488555  0.71316350361812  1.0000
  O   O24       1.0  0.9785297734920111  0.9923891204431838  0.21316350351635888  1.0000
  S   S1        1.0  0.09290083348342378  0.5432535673421375  0.33956424958783904  1.0000
  S   S2        1.0  0.5929008328856513  0.5432535673421375  0.160435750513922  1.0000
  S   S3        1.0  0.4070991666780047  0.043253567104073055  0.33956424958783904  1.0000
  S   S4        1.0  0.09290083348342378  0.9567464325787596  0.8395642496896001  1.0000
  S   S5        1.0  0.9070991668394333  0.45674643234069523  0.6604357500525596  1.0000
  S   S6        1.0  0.4070991666780047  0.45674643234069523  0.8395642496896001  1.0000
  S   S7        1.0  0.5929008328856513  0.9567464325787596  0.6604357500525596  1.0000
  S   S8        1.0  0.9070991668394333  0.043253567104073055  0.160435750513922  1.0000
