data_image0
_chemical_formula_structural       H144C96N24O24S8
_chemical_formula_sum              "H144 C96 N24 O24 S8"
_cell_length_a       12.865342629478375
_cell_length_b       12.455946836844438
_cell_length_c       18.784821523297108
_cell_angle_alpha    90.0
_cell_angle_beta     90.0
_cell_angle_gamma    90.0

_space_group_name_H-M_alt    "P 1"
_space_group_IT_number       1

loop_
  _space_group_symop_operation_xyz
  'x, y, z'

loop_
  _atom_site_type_symbol
  _atom_site_label
  _atom_site_symmetry_multiplicity
  _atom_site_fract_x
  _atom_site_fract_y
  _atom_site_fract_z
  _atom_site_occupancy
  H   H1        1.0  0.17077342930345882  0.9180652615001856  0.03185474981797812  1.0000
  H   H2        1.0  0.6707734289350903  0.9180652615001856  0.468145250094262  1.0000
  H   H3        1.0  0.3292265711054547  0.4180652613735168  0.03185474981797812  1.0000
  H   H4        1.0  0.17077342930345882  0.581934738879821  0.5318547502625629  1.0000
  H   H5        1.0  0.8292265707370862  0.08193473875315208  0.968145250006502  1.0000
  H   H6        1.0  0.3292265711054547  0.08193473875315208  0.5318547502625629  1.0000
  H   H7        1.0  0.6707734289350903  0.581934738879821  0.968145250006502  1.0000
  H   H8        1.0  0.8292265707370862  0.4180652613735168  0.468145250094262  1.0000
  H   H9        1.0  0.893555604470217  0.09254735710577575  0.09242461195847795  1.0000
  H   H10       1.0  0.39355560406130347  0.09254735710577575  0.40757538795376214  1.0000
  H   H11       1.0  0.6064443959792415  0.5925473572324447  0.09242461195847795  1.0000
  H   H12       1.0  0.893555604470217  0.4074526430208931  0.592424611870718  1.0000
  H   H13       1.0  0.106444395570328  0.9074526431475621  0.9075753878660022  1.0000
  H   H14       1.0  0.6064443959792415  0.9074526431475621  0.592424611870718  1.0000
  H   H15       1.0  0.39355560406130347  0.4074526430208931  0.9075753878660022  1.0000
  H   H16       1.0  0.106444395570328  0.5925473572324447  0.40757538795376214  1.0000
  H   H17       1.0  0.2098604512726816  0.8215856637834339  0.17152839413480103  1.0000
  H   H18       1.0  0.7098604516815951  0.8215856637834339  0.3284716063097837  1.0000
  H   H19       1.0  0.29013954835894984  0.32158566365676494  0.17152839413480103  1.0000
  H   H20       1.0  0.2098604512726816  0.6784143365965729  0.6715283940470411  1.0000
  H   H21       1.0  0.7901395487678634  0.17841433646990398  0.8284716062220238  1.0000
  H   H22       1.0  0.29013954835894984  0.17841433646990398  0.6715283940470411  1.0000
  H   H23       1.0  0.7098604516815951  0.6784143365965729  0.8284716062220238  1.0000
  H   H24       1.0  0.7901395487678634  0.32158566365676494  0.3284716063097837  1.0000
  H   H25       1.0  0.2877118555333864  0.7043663701299702  0.171118854443915  1.0000
  H   H26       1.0  0.7877118551650178  0.7043663701299702  0.3288811454683251  1.0000
  H   H27       1.0  0.21228814409824504  0.20436637000330124  0.171118854443915  1.0000
  H   H28       1.0  0.2877118555333864  0.7956336302500365  0.6711188548884999  1.0000
  H   H29       1.0  0.7122881445071586  0.2956336301233677  0.8288811453805651  1.0000
  H   H30       1.0  0.21228814409824504  0.2956336301233677  0.6711188548884999  1.0000
  H   H31       1.0  0.7877118551650178  0.7956336302500365  0.8288811453805651  1.0000
  H   H32       1.0  0.7122881445071586  0.20436637000330124  0.3288811454683251  1.0000
  H   H33       1.0  0.047159640242290204  0.8192478969013638  0.228047053557957  1.0000
  H   H34       1.0  0.5471596398739217  0.8192478969013638  0.271952946354283  1.0000
  H   H35       1.0  0.4528403601666234  0.31924789677469484  0.228047053557957  1.0000
  H   H36       1.0  0.047159640242290204  0.6807521026758135  0.728047053470197  1.0000
  H   H37       1.0  0.9528403597982548  0.18075210254914464  0.7719529462665231  1.0000
  H   H38       1.0  0.4528403601666234  0.18075210254914464  0.728047053470197  1.0000
  H   H39       1.0  0.5471596398739217  0.6807521026758135  0.7719529462665231  1.0000
  H   H40       1.0  0.9528403597982548  0.31924789677469484  0.271952946354283  1.0000
  H   H41       1.0  0.005182625284088792  0.7003151726850088  0.26958327145772926  1.0000
  H   H42       1.0  0.5051826249157203  0.7003151726850088  0.23041672845451078  1.0000
  H   H43       1.0  0.49481737512482477  0.20031517255833975  0.26958327145772926  1.0000
  H   H44       1.0  0.005182625284088792  0.799684827694998  0.769583271902314  1.0000
  H   H45       1.0  0.9948173747564563  0.2996848275683291  0.7304167283667509  1.0000
  H   H46       1.0  0.49481737512482477  0.2996848275683291  0.769583271902314  1.0000
  H   H47       1.0  0.5051826249157203  0.799684827694998  0.7304167283667509  1.0000
  H   H48       1.0  0.9948173747564563  0.20031517255833975  0.23041672845451078  1.0000
  H   H49       1.0  0.10037740907428591  0.5427775871683769  0.2581618368844003  1.0000
  H   H50       1.0  0.6003774094831995  0.5427775871683769  0.24183816356018448  1.0000
  H   H51       1.0  0.3996225905573456  0.042777587041707976  0.2581618368844003  1.0000
  H   H52       1.0  0.10037740907428591  0.9572224132116298  0.7581618367966404  1.0000
  H   H53       1.0  0.8996225901889771  0.4572224130849609  0.7418381634724246  1.0000
  H   H54       1.0  0.3996225905573456  0.4572224130849609  0.7581618367966404  1.0000
  H   H55       1.0  0.6003774094831995  0.9572224132116298  0.7418381634724246  1.0000
  H   H56       1.0  0.8996225901889771  0.042777587041707976  0.24183816356018448  1.0000
  H   H57       1.0  0.2179436802231271  0.5439876613760971  0.21115675201282366  1.0000
  H   H58       1.0  0.7179436806320406  0.5439876613760971  0.2888432478994164  1.0000
  H   H59       1.0  0.2820563194085044  0.04398766124942821  0.21115675201282366  1.0000
  H   H60       1.0  0.2179436802231271  0.9560123390039096  0.7111567519250638  1.0000
  H   H61       1.0  0.782056319040136  0.4560123388772407  0.7888432478116565  1.0000
  H   H62       1.0  0.2820563194085044  0.4560123388772407  0.7111567519250638  1.0000
  H   H63       1.0  0.7179436806320406  0.9560123390039096  0.7888432478116565  1.0000
  H   H64       1.0  0.782056319040136  0.04398766124942821  0.2888432478994164  1.0000
  H   H65       1.0  0.1115216113026422  0.10207332823861817  0.5904127199848607  1.0000
  H   H66       1.0  0.6115216109342737  0.10207332823861817  0.9095872802842042  1.0000
  H   H67       1.0  0.3884783891062713  0.602073328365287  0.5904127199848607  1.0000
  H   H68       1.0  0.1115216113026422  0.39792667188805075  0.09041272007262059  1.0000
  H   H69       1.0  0.8884783887379027  0.8979266720147197  0.4095872803719642  1.0000
  H   H70       1.0  0.3884783891062713  0.8979266720147197  0.09041272007262059  1.0000
  H   H71       1.0  0.6115216109342737  0.39792667188805075  0.4095872803719642  1.0000
  H   H72       1.0  0.8884783887379027  0.602073328365287  0.9095872802842042  1.0000
  H   H73       1.0  0.09724006006132484  0.28275250497875787  0.5354789901796452  1.0000
  H   H74       1.0  0.5972400596929562  0.28275250497875787  0.964521009557075  1.0000
  H   H75       1.0  0.4027599403475887  0.7827525051054267  0.5354789901796452  1.0000
  H   H76       1.0  0.09724006006132484  0.21724749514791103  0.0354789902674051  1.0000
  H   H77       1.0  0.9027599399792201  0.71724749527458  0.464521009644835  1.0000
  H   H78       1.0  0.4027599403475887  0.71724749527458  0.0354789902674051  1.0000
  H   H79       1.0  0.5972400596929562  0.21724749514791103  0.464521009644835  1.0000
  H   H80       1.0  0.9027599399792201  0.7827525051054267  0.964521009557075  1.0000
  H   H81       1.0  0.11152137189976824  0.30206135184125216  0.4032288563724672  1.0000
  H   H82       1.0  0.6115213723086818  0.30206135184125216  0.0967711435397729  1.0000
  H   H83       1.0  0.3884786277318632  0.8020613511650918  0.4032288563724672  1.0000
  H   H84       1.0  0.11152137189976824  0.1979386482854167  0.9032288562847073  1.0000
  H   H85       1.0  0.8884786281407768  0.6979386484120855  0.596771143452013  1.0000
  H   H86       1.0  0.3884786277318632  0.6979386484120855  0.9032288562847073  1.0000
  H   H87       1.0  0.6115213723086818  0.1979386482854167  0.596771143452013  1.0000
  H   H88       1.0  0.8884786281407768  0.8020613511650918  0.0967711435397729  1.0000
  H   H89       1.0  0.1443107092807583  0.14057979557366257  0.3289187561530539  1.0000
  H   H90       1.0  0.6443107096896717  0.14057979557366257  0.1710812437591862  1.0000
  H   H91       1.0  0.35568929035087316  0.6405797957003315  0.3289187561530539  1.0000
  H   H92       1.0  0.1443107092807583  0.35942020375017697  0.8289187565976387  1.0000
  H   H93       1.0  0.8556892907597867  0.8594202038768458  0.6710812436714263  1.0000
  H   H94       1.0  0.35568929035087316  0.8594202038768458  0.8289187565976387  1.0000
  H   H95       1.0  0.6443107096896717  0.35942020375017697  0.6710812436714263  1.0000
  H   H96       1.0  0.8556892907597867  0.6405797957003315  0.1710812437591862  1.0000
  H   H97       1.0  0.2393315015913293  0.8943195435813276  0.3839022378283546  1.0000
  H   H98       1.0  0.7393315020002428  0.8943195435813276  0.11609776208388553  1.0000
  H   H99       1.0  0.26066849804030223  0.39431954345465875  0.3839022378283546  1.0000
  H   H100      1.0  0.2393315015913293  0.6056804559958496  0.8839022377405946  1.0000
  H   H101      1.0  0.7606684984492158  0.10568045667201012  0.6160977619961256  1.0000
  H   H102      1.0  0.26066849804030223  0.10568045667201012  0.8839022377405946  1.0000
  H   H103      1.0  0.7393315020002428  0.6056804559958496  0.6160977619961256  1.0000
  H   H104      1.0  0.7606684984492158  0.39431954345465875  0.11609776208388553  1.0000
  H   H105      1.0  0.166670303446628  0.9559203331520052  0.31438408252512595  1.0000
  H   H106      1.0  0.6666703030782596  0.9559203331520052  0.18561591738711417  1.0000
  H   H107      1.0  0.3333296969622855  0.45592033302533624  0.31438408252512595  1.0000
  H   H108      1.0  0.166670303446628  0.5440796664251721  0.814384082437366  1.0000
  H   H109      1.0  0.833329696593917  0.044079667101332626  0.6856159172993542  1.0000
  H   H110      1.0  0.3333296969622855  0.044079667101332626  0.814384082437366  1.0000
  H   H111      1.0  0.6666703030782596  0.5440796664251721  0.6856159172993542  1.0000
  H   H112      1.0  0.833329696593917  0.45592033302533624  0.18561591738711417  1.0000
  H   H113      1.0  0.10448653632588897  0.872711370912843  0.3782526739041841  1.0000
  H   H114      1.0  0.6044865359575204  0.872711370912843  0.121747326008056  1.0000
  H   H115      1.0  0.39551346408302457  0.3727113707861741  0.3782526739041841  1.0000
  H   H116      1.0  0.10448653632588897  0.6272886286643343  0.8782526738164241  1.0000
  H   H117      1.0  0.895513463714656  0.12728862934049476  0.6217473259202961  1.0000
  H   H118      1.0  0.39551346408302457  0.12728862934049476  0.8782526738164241  1.0000
  H   H119      1.0  0.6044865359575204  0.6272886286643343  0.6217473259202961  1.0000
  H   H120      1.0  0.895513463714656  0.3727113707861741  0.121747326008056  1.0000
  H   H121      1.0  0.10660294867371184  0.8482393557386659  0.4966870150152148  1.0000
  H   H122      1.0  0.6066029483053433  0.8482393557386659  0.0033129848970253474  1.0000
  H   H123      1.0  0.39339705173520173  0.3482393564148264  0.4966870150152148  1.0000
  H   H124      1.0  0.10660294867371184  0.6517606438385114  0.9966870149274549  1.0000
  H   H125      1.0  0.8933970513668332  0.15176064371184247  0.5033129848092653  1.0000
  H   H126      1.0  0.39339705173520173  0.15176064371184247  0.9966870149274549  1.0000
  H   H127      1.0  0.6066029483053433  0.6517606438385114  0.5033129848092653  1.0000
  H   H128      1.0  0.8933970513668332  0.3482393564148264  0.0033129848970253474  1.0000
  H   H129      1.0  0.11415046006120583  0.9129252259140818  0.5804788624941962  1.0000
  H   H130      1.0  0.6141504596928373  0.9129252259140818  0.919521137242524  1.0000
  H   H131      1.0  0.38584953957042567  0.4129252257874128  0.5804788624941962  1.0000
  H   H132      1.0  0.11415046006120583  0.5870747744659249  0.08047886258195615  1.0000
  H   H133      1.0  0.8858495399793391  0.08707477433925608  0.41952113733028396  1.0000
  H   H134      1.0  0.38584953957042567  0.08707477433925608  0.08047886258195615  1.0000
  H   H135      1.0  0.6141504596928373  0.5870747744659249  0.41952113733028396  1.0000
  H   H136      1.0  0.8858495399793391  0.4129252257874128  0.919521137242524  1.0000
  H   H137      1.0  0.2287377293207243  0.886301762893264  0.5306820987165963  1.0000
  H   H138      1.0  0.7287377289523558  0.886301762893264  0.9693179015524686  1.0000
  H   H139      1.0  0.2712622710881892  0.3863017635694244  0.5306820987165963  1.0000
  H   H140      1.0  0.2287377293207243  0.6136982366839134  0.03068209827201157  1.0000
  H   H141      1.0  0.7712622707198207  0.11369823655724448  0.4693179016402285  1.0000
  H   H142      1.0  0.2712622710881892  0.11369823655724448  0.03068209827201157  1.0000
  H   H143      1.0  0.7287377289523558  0.6136982366839134  0.4693179016402285  1.0000
  H   H144      1.0  0.7712622707198207  0.3863017635694244  0.9693179015524686  1.0000
  C   C1        1.0  0.03575235057837316  0.005396332441077474  0.06892000961490974  1.0000
  C   C2        1.0  0.5357523509872867  0.005396332441077474  0.43107999029733035  1.0000
  C   C3        1.0  0.4642476490532583  0.5053963325677464  0.06892000961490974  1.0000
  C   C4        1.0  0.03575235057837316  0.49460366768559144  0.5689200095271497  1.0000
  C   C5        1.0  0.9642476494621719  0.9946036678122604  0.9310799902095704  1.0000
  C   C6        1.0  0.4642476490532583  0.9946036678122604  0.5689200095271497  1.0000
  C   C7        1.0  0.5357523509872867  0.49460366768559144  0.9310799902095704  1.0000
  C   C8        1.0  0.9642476494621719  0.5053963325677464  0.43107999029733035  1.0000
  C   C9        1.0  0.09613618740056416  0.9532842958896368  0.017717930382634906  1.0000
  C   C10       1.0  0.5961361870321956  0.9532842958896368  0.48228206952960523  1.0000
  C   C11       1.0  0.4038638130083494  0.45328429656579733  0.017717930382634906  1.0000
  C   C12       1.0  0.09613618740056416  0.5467157036875404  0.517717930294875  1.0000
  C   C13       1.0  0.9038638126399808  0.04671570356087152  0.9822820694418453  1.0000
  C   C14       1.0  0.4038638130083494  0.04671570356087152  0.517717930294875  1.0000
  C   C15       1.0  0.5961361870321956  0.5467157036875404  0.9822820694418453  1.0000
  C   C16       1.0  0.9038638126399808  0.45328429656579733  0.48228206952960523  1.0000
  C   C17       1.0  0.9400276198077705  0.05206804737489582  0.052000787912120004  1.0000
  C   C18       1.0  0.44002761939885693  0.05206804737489582  0.4479992120001201  1.0000
  C   C19       1.0  0.5599723806416881  0.5520680475015647  0.052000787912120004  1.0000
  C   C20       1.0  0.9400276198077705  0.44793195275177305  0.5520007883567047  1.0000
  C   C21       1.0  0.05997238023277451  0.947931952878442  0.9479992119123601  1.0000
  C   C22       1.0  0.5599723806416881  0.947931952878442  0.5520007883567047  1.0000
  C   C23       1.0  0.44002761939885693  0.44793195275177305  0.9479992119123601  1.0000
  C   C24       1.0  0.05997238023277451  0.5520680475015647  0.4479992120001201  1.0000
  C   C25       1.0  0.14589880689995308  0.6896405558339879  0.2192218592491158  1.0000
  C   C26       1.0  0.6458988065315845  0.6896405558339879  0.2807781406631243  1.0000
  C   C27       1.0  0.35410119350896047  0.18964055651014824  0.2192218592491158  1.0000
  C   C28       1.0  0.14589880689995308  0.8103594437431896  0.7192218591613558  1.0000
  C   C29       1.0  0.854101193140592  0.3103594436165206  0.7807781405753644  1.0000
  C   C30       1.0  0.35410119350896047  0.3103594436165206  0.7192218591613558  1.0000
  C   C31       1.0  0.6458988065315845  0.8103594437431896  0.7807781405753644  1.0000
  C   C32       1.0  0.854101193140592  0.18964055651014824  0.2807781406631243  1.0000
  C   C33       1.0  0.14643049503271424  0.03026012433555695  0.4170427911856447  1.0000
  C   C34       1.0  0.6464304946643458  0.03026012433555695  0.08295720925894008  1.0000
  C   C35       1.0  0.3535695053761993  0.5302601244622258  0.4170427911856447  1.0000
  C   C36       1.0  0.14643049503271424  0.46973987498828257  0.9170427910978848  1.0000
  C   C37       1.0  0.8535695050078308  0.9697398751149514  0.5829572091711802  1.0000
  C   C38       1.0  0.3535695053761993  0.9697398751149514  0.9170427910978848  1.0000
  C   C39       1.0  0.6464304946643458  0.46973987498828257  0.5829572091711802  1.0000
  C   C40       1.0  0.8535695050078308  0.5302601244622258  0.08295720925894008  1.0000
  C   C41       1.0  0.13691799827887055  0.01912715132142912  0.49158197156930994  1.0000
  C   C42       1.0  0.6369179979105021  0.01912715132142912  0.008418028342930184  1.0000
  C   C43       1.0  0.363082002130043  0.5191271514480981  0.49158197156930994  1.0000
  C   C44       1.0  0.13691799827887055  0.4808728488052398  0.99158197148155  1.0000
  C   C45       1.0  0.8630820017616745  0.9808728489319087  0.5084180282551704  1.0000
  C   C46       1.0  0.363082002130043  0.9808728489319087  0.99158197148155  1.0000
  C   C47       1.0  0.6369179979105021  0.4808728488052398  0.5084180282551704  1.0000
  C   C48       1.0  0.8630820017616745  0.5191271514480981  0.008418028342930184  1.0000
  C   C49       1.0  0.11954553985029454  0.11115298083198548  0.5328752619547409  1.0000
  C   C50       1.0  0.619545539481926  0.11115298083198548  0.9671247383143241  1.0000
  C   C51       1.0  0.380454460558619  0.611152980155825  0.5328752619547409  1.0000
  C   C52       1.0  0.11954553985029454  0.38884701929468346  0.03287526204250072  1.0000
  C   C53       1.0  0.8804544601902505  0.8888470194213522  0.467124738402084  1.0000
  C   C54       1.0  0.380454460558619  0.8888470194213522  0.03287526204250072  1.0000
  C   C55       1.0  0.619545539481926  0.38884701929468346  0.467124738402084  1.0000
  C   C56       1.0  0.8804544601902505  0.611152980155825  0.9671247383143241  1.0000
  C   C57       1.0  0.11131491490313031  0.21272565423627554  0.5020505213905638  1.0000
  C   C58       1.0  0.6113149145347618  0.21272565423627554  0.997949478878501  1.0000
  C   C59       1.0  0.38868508472850116  0.7127256543629444  0.5020505213905638  1.0000
  C   C60       1.0  0.11131491490313031  0.28727434589039336  0.002050521478323804  1.0000
  C   C61       1.0  0.8886850851374146  0.7872743460170623  0.497949478966261  1.0000
  C   C62       1.0  0.38868508472850116  0.7872743460170623  0.002050521478323804  1.0000
  C   C63       1.0  0.6113149145347618  0.28727434589039336  0.497949478966261  1.0000
  C   C64       1.0  0.8886850851374146  0.7127256543629444  0.997949478878501  1.0000
  C   C65       1.0  0.11977019535176384  0.22349114254129557  0.42828699224116407  1.0000
  C   C66       1.0  0.6197701949833954  0.22349114254129557  0.07171300767107604  1.0000
  C   C67       1.0  0.38022980505714965  0.7234911418651351  0.42828699224116407  1.0000
  C   C68       1.0  0.11977019535176384  0.2765088575853733  0.9282869926857489  1.0000
  C   C69       1.0  0.8802298046887812  0.7765088577120423  0.5717130075833161  1.0000
  C   C70       1.0  0.38022980505714965  0.7765088577120423  0.9282869926857489  1.0000
  C   C71       1.0  0.6197701949833954  0.2765088575853733  0.5717130075833161  1.0000
  C   C72       1.0  0.8802298046887812  0.7234911418651351  0.07171300767107604  1.0000
  C   C73       1.0  0.13746148322143079  0.13260343606431435  0.38656585003983845  1.0000
  C   C74       1.0  0.6374614836303443  0.13260343606431435  0.11343414987240162  1.0000
  C   C75       1.0  0.36253851641020063  0.6326034361909832  0.38656585003983845  1.0000
  C   C76       1.0  0.13746148322143079  0.36739656406235455  0.8865658499520784  1.0000
  C   C77       1.0  0.8625385168191142  0.8673965641890234  0.6134341497846417  1.0000
  C   C78       1.0  0.36253851641020063  0.8673965641890234  0.8865658499520784  1.0000
  C   C79       1.0  0.6374614836303443  0.36739656406235455  0.6134341497846417  1.0000
  C   C80       1.0  0.8625385168191142  0.6326034361909832  0.11343414987240162  1.0000
  C   C81       1.0  0.16529716395794297  0.9337776061788807  0.3708170179504254  1.0000
  C   C82       1.0  0.6652971643668565  0.9337776061788807  0.12918298196181474  1.0000
  C   C83       1.0  0.33470283567368847  0.4337776068550412  0.3708170179504254  1.0000
  C   C84       1.0  0.16529716395794297  0.5662223933982966  0.8708170178626655  1.0000
  C   C85       1.0  0.834702836082602  0.06622239327162775  0.6291829818740549  1.0000
  C   C86       1.0  0.33470283567368847  0.06622239327162775  0.8708170178626655  1.0000
  C   C87       1.0  0.6652971643668565  0.5662223933982966  0.6291829818740549  1.0000
  C   C88       1.0  0.834702836082602  0.4337776068550412  0.12918298196181474  1.0000
  C   C89       1.0  0.14686206457267179  0.9112999572560526  0.5266564948583848  1.0000
  C   C90       1.0  0.6468620642043033  0.9112999572560526  0.9733435048783355  1.0000
  C   C91       1.0  0.35313793583624176  0.4112999571293837  0.5266564948583848  1.0000
  C   C92       1.0  0.14686206457267179  0.5887000423211247  0.02665649494614472  1.0000
  C   C93       1.0  0.8531379354678732  0.0887000421944558  0.47334350496609534  1.0000
  C   C94       1.0  0.35313793583624176  0.0887000421944558  0.02665649494614472  1.0000
  C   C95       1.0  0.6468620642043033  0.5887000423211247  0.47334350496609534  1.0000
  C   C96       1.0  0.8531379354678732  0.4112999571293837  0.9733435048783355  1.0000
  N   N1        1.0  0.2184866700370162  0.7414127838666638  0.18157621065336177  1.0000
  N   N2        1.0  0.7184866704459297  0.7414127838666638  0.31842378925887826  1.0000
  N   N3        1.0  0.2815133295946153  0.24141278373999492  0.18157621065336177  1.0000
  N   N4        1.0  0.2184866700370162  0.7585872157105136  0.6815762110979465  1.0000
  N   N5        1.0  0.7815133292262468  0.2585872155838446  0.8184237891711184  1.0000
  N   N6        1.0  0.2815133295946153  0.2585872155838446  0.6815762110979465  1.0000
  N   N7        1.0  0.7184866704459297  0.7585872157105136  0.8184237891711184  1.0000
  N   N8        1.0  0.7815133292262468  0.24141278373999492  0.31842378925887826  1.0000
  N   N9        1.0  0.06035863189688595  0.7407439997020302  0.24091753144352837  1.0000
  N   N10       1.0  0.5603586323057995  0.7407439997020302  0.2590824684687117  1.0000
  N   N11       1.0  0.43964136773474555  0.24074399957536127  0.24091753144352837  1.0000
  N   N12       1.0  0.06035863189688595  0.7592560006779765  0.7409175318881132  1.0000
  N   N13       1.0  0.9396413681436591  0.2592560005513076  0.7590824683809518  1.0000
  N   N14       1.0  0.43964136773474555  0.2592560005513076  0.7409175318881132  1.0000
  N   N15       1.0  0.5603586323057995  0.7592560006779765  0.7590824683809518  1.0000
  N   N16       1.0  0.9396413681436591  0.24074399957536127  0.2590824684687117  1.0000
  N   N17       1.0  0.15975265169314273  0.5858846883011259  0.23576024368969742  1.0000
  N   N18       1.0  0.6597526521020562  0.5858846883011259  0.26423975622254264  1.0000
  N   N19       1.0  0.3402473479384887  0.08588468897728649  0.23576024368969742  1.0000
  N   N20       1.0  0.15975265169314273  0.9141153112760513  0.7357602436019375  1.0000
  N   N21       1.0  0.8402473483474023  0.4141153111493824  0.7642397561347828  1.0000
  N   N22       1.0  0.3402473479384887  0.4141153111493824  0.7357602436019375  1.0000
  N   N23       1.0  0.6597526521020562  0.9141153112760513  0.7642397561347828  1.0000
  N   N24       1.0  0.8402473483474023  0.08588468897728649  0.26423975622254264  1.0000
  O   O1        1.0  0.18437796476285345  0.9652264623060828  0.15994011155622948  1.0000
  O   O2        1.0  0.684377964394485  0.9652264623060828  0.34005988835601064  1.0000
  O   O3        1.0  0.3156220356460601  0.46522646217941394  0.15994011155622948  1.0000
  O   O4        1.0  0.18437796476285345  0.5347735380739238  0.6599401114684695  1.0000
  O   O5        1.0  0.8156220352776916  0.03477353794725492  0.8400598882682507  1.0000
  O   O6        1.0  0.3156220356460601  0.03477353794725492  0.6599401114684695  1.0000
  O   O7        1.0  0.684377964394485  0.5347735380739238  0.8400598882682507  1.0000
  O   O8        1.0  0.8156220352776916  0.46522646217941394  0.34005988835601064  1.0000
  O   O9        1.0  0.003892023045330288  0.9598296666324566  0.20246355576406114  1.0000
  O   O10       1.0  0.5038920226769618  0.9598296666324566  0.29753644468052365  1.0000
  O   O11       1.0  0.4961079765863012  0.45982966650578777  0.20246355576406114  1.0000
  O   O12       1.0  0.003892023045330288  0.5401703337475501  0.7024635556763011  1.0000
  O   O13       1.0  0.9961079769952147  0.04017033362088113  0.7975364445927637  1.0000
  O   O14       1.0  0.4961079765863012  0.04017033362088113  0.7024635556763011  1.0000
  O   O15       1.0  0.5038920226769618  0.5401703337475501  0.7975364445927637  1.0000
  O   O16       1.0  0.9961079769952147  0.45982966650578777  0.29753644468052365  1.0000
  O   O17       1.0  0.08561021122564977  0.13162223325732675  0.17314047492899134  1.0000
  O   O18       1.0  0.5856102108572813  0.13162223325732675  0.32685952551559344  1.0000
  O   O19       1.0  0.41438978918326375  0.6316222333839956  0.17314047492899134  1.0000
  O   O20       1.0  0.08561021122564977  0.3683777668693421  0.6731404748412314  1.0000
  O   O21       1.0  0.9143897888148953  0.868377766996011  0.8268595254278335  1.0000
  O   O22       1.0  0.41438978918326375  0.868377766996011  0.6731404748412314  1.0000
  O   O23       1.0  0.5856102108572813  0.3683777668693421  0.8268595254278335  1.0000
  O   O24       1.0  0.9143897888148953  0.6316222333839956  0.32685952551559344  1.0000
  S   S1        1.0  0.0809842326012147  0.01560376120304947  0.15779322557437525  1.0000
  S   S2        1.0  0.5809842322328462  0.01560376120304947  0.34220677433786484  1.0000
  S   S3        1.0  0.41901576703041676  0.5156037613297183  0.15779322557437525  1.0000
  S   S4        1.0  0.0809842326012147  0.48439623892361944  0.6577932254866153  1.0000
  S   S5        1.0  0.9190157674393302  0.9843962390502883  0.8422067742501049  1.0000
  S   S6        1.0  0.41901576703041676  0.9843962390502883  0.6577932254866153  1.0000
  S   S7        1.0  0.5809842322328462  0.48439623892361944  0.8422067742501049  1.0000
  S   S8        1.0  0.9190157674393302  0.5156037613297183  0.34220677433786484  1.0000
