data_image0
_chemical_formula_structural       H24C18N6O6S2
_chemical_formula_sum              "H24 C18 N6 O6 S2"
_cell_length_a       6.199535569246692
_cell_length_b       7.092339884389151
_cell_length_c       13.09808126555645
_cell_angle_alpha    74.20617297660705
_cell_angle_beta     83.55348419873454
_cell_angle_gamma    85.53319760317339

_space_group_name_H-M_alt    "P 1"
_space_group_IT_number       1

loop_
  _space_group_symop_operation_xyz
  'x, y, z'

loop_
  _atom_site_type_symbol
  _atom_site_label
  _atom_site_symmetry_multiplicity
  _atom_site_fract_x
  _atom_site_fract_y
  _atom_site_fract_z
  _atom_site_occupancy
  H   H1        1.0  0.1707036886892912  0.3174438648759638  0.648358817423448  1.0000
  H   H2        1.0  0.8292963121260961  0.6825561346331334  0.3516411822104778  1.0000
  H   H3        1.0  0.11487630132571866  0.3684138691646951  0.4583068933494604  1.0000
  H   H4        1.0  0.8851236978661904  0.6315861303480236  0.5416931063717477  1.0000
  H   H5        1.0  0.7582319525074086  0.5024692930617054  0.7329058158181903  1.0000
  H   H6        1.0  0.24176804668450033  0.49753070645101305  0.26709418390301787  1.0000
  H   H7        1.0  0.9484934781533378  0.5140638683884885  0.8853093193537026  1.0000
  H   H8        1.0  0.05150652096566015  0.48593613258683227  0.11469068092161508  1.0000
  H   H9        1.0  0.7052366457346864  0.6366775672358987  0.9168790091132124  1.0000
  H   H10       1.0  0.2947633533808015  0.36332243374389694  0.0831209903981668  1.0000
  H   H11       1.0  0.9748701345336863  0.08220334803867636  0.8916084036032517  1.0000
  H   H12       1.0  0.025129866205279912  0.9177966529374978  0.10839159582084539  1.0000
  H   H13       1.0  0.7201603817053358  0.9963490236895293  0.8889495784295738  1.0000
  H   H14       1.0  0.2798396191135616  0.0036509758150927107  0.11105042196829053  1.0000
  H   H15       1.0  0.2873412440547791  0.8923259087473449  0.8809180921576468  1.0000
  H   H16       1.0  0.7126587566876971  0.10767409222435446  0.11908190803038872  1.0000
  H   H17       1.0  0.2772964390163477  0.6395795731109336  0.8937452755290374  1.0000
  H   H18       1.0  0.7227035601026502  0.36042042786438716  0.10625472474628048  1.0000
  H   H19       1.0  0.9586061322484779  0.05705560807731844  0.30738181373192924  1.0000
  H   H20       1.0  0.041393866943431105  0.9429443914354001  0.6926181859892788  1.0000
  H   H21       1.0  0.6496661786840541  0.13916163028728104  0.4283107907377996  1.0000
  H   H22       1.0  0.35033382213133313  0.860838369221816  0.5716892088961262  1.0000
  H   H23       1.0  0.3097338436684417  0.9181045413531139  0.3783792898531254  1.0000
  H   H24       1.0  0.6902661555269777  0.08189545815512966  0.6216207106320212  1.0000
  C   C1        1.0  0.4568443757087868  0.4014390545774945  0.7004606677488812  1.0000
  C   C2        1.0  0.5431556234831222  0.5985609449352239  0.299539331972327  1.0000
  C   C3        1.0  0.32726681146755143  0.38444245109259234  0.6246708819395165  1.0000
  C   C4        1.0  0.6727331876514465  0.6155575498827283  0.37532911833580146  1.0000
  C   C5        1.0  0.3971567779883069  0.4551600954431272  0.5150513343497987  1.0000
  C   C6        1.0  0.6028432212036021  0.5448399040695913  0.4849486653714094  1.0000
  C   C7        1.0  0.26920885183993953  0.4395033568658032  0.43470465880357023  1.0000
  C   C8        1.0  0.7307911473554797  0.5604966426424403  0.5652953416815764  1.0000
  C   C9        1.0  0.6601445083193412  0.4894681703300081  0.6715015212061296  1.0000
  C   C10       1.0  0.3398554908760779  0.5105318291782355  0.3284984792790171  1.0000
  C   C11       1.0  0.98112712852772  0.7936762159124738  0.8928359447870388  1.0000
  C   C12       1.0  0.018872872287667174  0.206323783596623  0.10716405484688703  1.0000
  C   C13       1.0  0.977119556917799  0.03204680841483155  0.39175784324566953  1.0000
  C   C14       1.0  0.02288044219768902  0.9679531925649641  0.6082421562657098  1.0000
  C   C15       1.0  0.8030881239303859  0.07841609829603177  0.45980252123886867  1.0000
  C   C16       1.0  0.1969118752615232  0.9215839012166868  0.5401974784823396  1.0000
  C   C17       1.0  0.1741752529691619  0.9536886923628534  0.4317287184716735  1.0000
  C   C18       1.0  0.8258247478462254  0.046311307146243756  0.5682712811622523  1.0000
  N   N1        1.0  0.8661441157668456  0.6413467179231522  0.892406451898411  1.0000
  N   N2        1.0  0.13385588497563078  0.358653283048547  0.10759354828962477  1.0000
  N   N3        1.0  0.8825301430719733  0.9654549027894302  0.8976818923431648  1.0000
  N   N4        1.0  0.11746985767050291  0.03454509818226898  0.10231810784487073  1.0000
  N   N5        1.0  0.19789341072254754  0.7738437090916058  0.8858989867846977  1.0000
  N   N6        1.0  0.8021065884728716  0.22615629041663773  0.11410101370044899  1.0000
  O   O1        1.0  0.129985774649584  0.3149646417361155  0.8467274639727138  1.0000
  O   O2        1.0  0.8700142261693133  0.6850353577685065  0.1532725364251505  1.0000
  O   O3        1.0  0.45310500903065914  0.09414371929262698  0.8632025288854558  1.0000
  O   O4        1.0  0.546894990088339  0.9058562816826937  0.136797471389862  1.0000
  O   O5        1.0  0.4643516350273298  0.41609015561911017  0.8973895928354487  1.0000
  O   O6        1.0  0.5356483657116364  0.5839098453570639  0.10261040658864823  1.0000
  S   S1        1.0  0.3698187700251301  0.30075596433784196  0.8373958131678734  1.0000
  S   S2        1.0  0.6301812307173463  0.6992440366338573  0.1626041870201622  1.0000
