data_image0
_chemical_formula_structural       H28C26N6O6S2
_chemical_formula_sum              "H28 C26 N6 O6 S2"
_cell_length_a       6.197979351816788
_cell_length_b       7.119845678661997
_cell_length_c       15.34682491736408
_cell_angle_alpha    77.949790501205
_cell_angle_beta     81.38469925594077
_cell_angle_gamma    87.34537922990017

_space_group_name_H-M_alt    "P 1"
_space_group_IT_number       1

loop_
  _space_group_symop_operation_xyz
  'x, y, z'

loop_
  _atom_site_type_symbol
  _atom_site_label
  _atom_site_symmetry_multiplicity
  _atom_site_fract_x
  _atom_site_fract_y
  _atom_site_fract_z
  _atom_site_occupancy
  H   H1        1.0  0.7809534024197659  0.9804765510680971  0.27474267911743605  1.0000
  H   H2        1.0  0.2190465982521994  0.019523447871888505  0.725257321178429  1.0000
  H   H3        1.0  0.9164251447510846  0.10441660582340198  0.11427040197271589  1.0000
  H   H4        1.0  0.08357485592064386  0.8955833931170629  0.8857295976715164  1.0000
  H   H5        1.0  0.18410546495893293  0.7987508290912214  0.20577632794450088  1.0000
  H   H6        1.0  0.8158945357130324  0.2012491698487641  0.7942236723513642  1.0000
  H   H7        1.0  0.8650550669093533  0.15549511483942005  0.9545097807503994  1.0000
  H   H8        1.0  0.134944933762612  0.8445048841005655  0.045490219545465525  1.0000
  H   H9        1.0  0.71633374566739  0.11309934000475527  0.4297534180466505  1.0000
  H   H10       1.0  0.283666254980969  0.8869006603715739  0.5702465821117444  1.0000
  H   H11       1.0  0.9639089474364284  0.9979192951490666  0.40219697295369544  1.0000
  H   H12       1.0  0.03609105323553704  0.002080703790918855  0.5978030273421695  1.0000
  H   H13       1.0  0.29694971267199466  0.38916193491486556  0.39594794887541745  1.0000
  H   H14       1.0  0.7030502863444956  0.6108380654630323  0.6040520513816418  1.0000
  H   H15       1.0  0.2885258734461577  0.1386114313163621  0.4069388789745929  1.0000
  H   H16       1.0  0.7114741272258076  0.8613885676236233  0.593061121321272  1.0000
  H   H17       1.0  0.981135984178369  0.5662145101218572  0.4076456995220657  1.0000
  H   H18       1.0  0.018864016493596314  0.43378548881812823  0.5923543007737992  1.0000
  H   H19       1.0  0.7275128351858148  0.4714719922102729  0.4078158780210431  1.0000
  H   H20       1.0  0.27248716546254415  0.5285280081660562  0.5921841221373517  1.0000
  H   H21       1.0  0.6422600394987198  0.5926767031001043  0.11715657722419577  1.0000
  H   H22       1.0  0.35773996114963935  0.4073232972762248  0.8828434229341992  1.0000
  H   H23       1.0  0.8712067285699591  0.4881022412304848  0.23788634514694446  1.0000
  H   H24       1.0  0.12879327044653124  0.511897759147413  0.7621136551101149  1.0000
  H   H25       1.0  0.2517715535598015  0.36418969216779484  0.20162733138077385  1.0000
  H   H26       1.0  0.7482284470883207  0.6358103082090136  0.7983726681259883  1.0000
  H   H27       1.0  0.4021447930567609  0.35121074271093217  0.043750473528744054  1.0000
  H   H28       1.0  0.5978552075913613  0.6487892576658765  0.956249525978018  1.0000
  C   C1        1.0  0.4739825600671779  0.8804665454686906  0.24831367585604283  1.0000
  C   C2        1.0  0.5260174405809445  0.11953345490811777  0.7516863236507194  1.0000
  C   C3        1.0  0.6832018501115864  0.9663881545901307  0.22322650955729656  1.0000
  C   C4        1.0  0.31679814890490404  0.03361184578776702  0.7767734906997626  1.0000
  C   C5        1.0  0.7582629412543269  0.03509646625932905  0.13406081582413132  1.0000
  C   C6        1.0  0.24173705939403214  0.9649035341170001  0.8659391843342634  1.0000
  C   C7        1.0  0.6317062082601104  0.01895439768237325  0.06577199061053773  1.0000
  C   C8        1.0  0.368293790756143  0.981045602696004  0.9342280089948888  1.0000
  C   C9        1.0  0.4199105756310383  0.9303996489007005  0.09200195533172914  1.0000
  C   C10       1.0  0.5800894250173207  0.06960035147562867  0.9079980448266657  1.0000
  C   C11       1.0  0.3445853604571067  0.8631648152689146  0.18517297004756464  1.0000
  C   C12       1.0  0.6554146385593836  0.13683518510898307  0.8148270302094947  1.0000
  C   C13       1.0  0.7063319471999685  0.08693910982220479  0.974368056128377  1.0000
  C   C14       1.0  0.2936680518165219  0.9130608905556931  0.025631944128682253  1.0000
  C   C15       1.0  0.9910403726393547  0.2797055219959566  0.4072816142944783  1.0000
  C   C16       1.0  0.008959628009004348  0.7202944783803725  0.5927183858639166  1.0000
  C   C17       1.0  0.8087817920009182  0.5405330627769029  0.10145820804001777  1.0000
  C   C18       1.0  0.19121820864744096  0.45946693759942614  0.8985417921183769  1.0000
  C   C19       1.0  0.9368506098444533  0.48142970539784186  0.1686321819010003  1.0000
  C   C20       1.0  0.06314938917180016  0.5185702949805353  0.8313678177044262  1.0000
  C   C21       1.0  0.1523325811689419  0.4120391692547313  0.14797088912592082  1.0000
  C   C22       1.0  0.8476674178475483  0.5879608311231665  0.8520291111311383  1.0000
  C   C23       1.0  0.23647176072561304  0.4043298732288842  0.06024471925191275  1.0000
  C   C24       1.0  0.7635282399225093  0.5956701271479243  0.9397552802548494  1.0000
  C   C25       1.0  0.8905840899461117  0.5347744918385228  0.010536147080580639  1.0000
  C   C26       1.0  0.10941591070224757  0.4652255085378063  0.9894638530778141  1.0000
  N   N1        1.0  0.8790733109995613  0.12263017263547109  0.40806998720156584  1.0000
  N   N2        1.0  0.12092668801669207  0.877369827742906  0.5919300124038609  1.0000
  N   N3        1.0  0.2088615701717421  0.26891159249218793  0.3988970751458056  1.0000
  N   N4        1.0  0.7911384304763802  0.7310884078846206  0.6011029243609567  1.0000
  N   N5        1.0  0.8895701726048942  0.4472360015136822  0.41274730739507165  1.0000
  N   N6        1.0  0.11042982804346471  0.5527639988626469  0.5872526927633231  1.0000
  O   O1        1.0  0.13955941875707784  0.7921023491804172  0.373507576474095  1.0000
  O   O2        1.0  0.8604405818912811  0.20789765119591183  0.6264924236842998  1.0000
  O   O3        1.0  0.46785640469760603  0.5911124303884465  0.38448129926974367  1.0000
  O   O4        1.0  0.5321435943422537  0.40888756855358693  0.6155187004731532  1.0000
  O   O5        1.0  0.46500571002654095  0.9158877785022548  0.41481931570082503  1.0000
  O   O6        1.0  0.5349942906215813  0.08411222187455375  0.585180683805937  1.0000
  S   S1        1.0  0.38015834813933214  0.7889954826619954  0.3640339799314158  1.0000
  S   S2        1.0  0.6198416525326332  0.21100451627798997  0.635966020364449  1.0000
