data_image0
_chemical_formula_structural       H30C24N6O6S2
_chemical_formula_sum              "H30 C24 N6 O6 S2"
_cell_length_a       6.200992999533738
_cell_length_b       7.081989051278039
_cell_length_c       15.158988985218205
_cell_angle_alpha    80.70354067864106
_cell_angle_beta     81.95777148185512
_cell_angle_gamma    84.84261623490211

_space_group_name_H-M_alt    "P 1"
_space_group_IT_number       1

loop_
  _space_group_symop_operation_xyz
  'x, y, z'

loop_
  _atom_site_type_symbol
  _atom_site_label
  _atom_site_symmetry_multiplicity
  _atom_site_fract_x
  _atom_site_fract_y
  _atom_site_fract_z
  _atom_site_occupancy
  H   H1        1.0  0.18670579625091388  0.2921327614464761  0.6978538477544075  1.0000
  H   H2        1.0  0.8132942030045804  0.7078672389496274  0.30214615223159175  1.0000
  H   H3        1.0  0.907382381119446  0.5837543058713053  0.6247646391720391  1.0000
  H   H4        1.0  0.09261761813604832  0.41624569452479826  0.37523536081396014  1.0000
  H   H5        1.0  0.7735784706184267  0.44920780824081935  0.7825190107797856  1.0000
  H   H6        1.0  0.2264215286370676  0.5507921921552843  0.2174809892062136  1.0000
  H   H7        1.0  0.14233703222130195  0.34833525046718455  0.5347706364609711  1.0000
  H   H8        1.0  0.8576629687718823  0.6516647484914885  0.46522936353569005  1.0000
  H   H9        1.0  0.9799380683546309  0.06244800107531871  0.9098189167265474  1.0000
  H   H10       1.0  0.02006193100964888  0.9375519978865581  0.09018108336144993  1.0000
  H   H11       1.0  0.7285660616840999  0.9772549276072977  0.9026895858221304  1.0000
  H   H12       1.0  0.2714339375713945  0.022745072788805918  0.09731041416386872  1.0000
  H   H13       1.0  0.29628469423898135  0.8678115913777452  0.8984482193281808  1.0000
  H   H14       1.0  0.7037153050165129  0.1321884090183583  0.10155178065781842  1.0000
  H   H15       1.0  0.28473634662216407  0.6170906694526291  0.9134649494362403  1.0000
  H   H16       1.0  0.7152636526333301  0.3829093309434744  0.08653505054975884  1.0000
  H   H17       1.0  0.9573268856620987  0.49252974548006717  0.903913011668301  1.0000
  H   H18       1.0  0.04267311370218116  0.5074702534818095  0.09608698841969636  1.0000
  H   H19       1.0  0.7138430976024812  0.6233174350849198  0.9343256764039161  1.0000
  H   H20       1.0  0.28615690176179875  0.376682563876957  0.06567432368408117  1.0000
  H   H21       1.0  0.7448176186142378  0.04373031845358545  0.6379115144798695  1.0000
  H   H22       1.0  0.2551823806412564  0.9562696819425182  0.3620884855061298  1.0000
  H   H23       1.0  0.6215109133522968  0.13719052593700734  0.48759081772235763  1.0000
  H   H24       1.0  0.3784890875321021  0.8628094744558925  0.5124091821723057  1.0000
  H   H25       1.0  0.05491293838814864  0.9669809480229044  0.7276010707009086  1.0000
  H   H26       1.0  0.9450870609761313  0.0330190509389723  0.27239892938708876  1.0000
  H   H27       1.0  0.3208918267775198  0.9014214184298189  0.6752382919482354  1.0000
  H   H28       1.0  0.679108174106879  0.09857858196308089  0.32476170794642795  1.0000
  H   H29       1.0  0.12049126237140778  0.7322334057098046  0.7025522033714194  1.0000
  H   H30       1.0  0.8795087386217765  0.26776659324886853  0.2974477966252418  1.0000
  C   C1        1.0  0.47101879702735766  0.3629522753373818  0.7479101544783956  1.0000
  C   C2        1.0  0.5289812038570411  0.637047725055518  0.2520898454162677  1.0000
  C   C3        1.0  0.3448673380495879  0.3535330202228408  0.6812648091058948  1.0000
  C   C4        1.0  0.6551326612059065  0.6464669801732628  0.3187351908801043  1.0000
  C   C5        1.0  0.41977686558663563  0.4257296819387444  0.5899310529594699  1.0000
  C   C6        1.0  0.5802231336688587  0.5742703184573592  0.4100689470265293  1.0000
  C   C7        1.0  0.6274239701971968  0.5115948343042068  0.5694119428711245  1.0000
  C   C8        1.0  0.3725760306872021  0.48840516608869305  0.43058805702353875  1.0000
  C   C9        1.0  0.7516437589075275  0.5178339954845727  0.6410166644966131  1.0000
  C   C10       1.0  0.24835624034796677  0.4821660049115309  0.358983335489386  1.0000
  C   C11       1.0  0.6777669498221597  0.44378279036077733  0.7281855605186414  1.0000
  C   C12       1.0  0.32223304943333464  0.5562172100353263  0.2718144394673578  1.0000
  C   C13       1.0  0.29754553573555803  0.41561410987929515  0.5199207295235906  1.0000
  C   C14       1.0  0.7024544635199362  0.5843858905168084  0.48007927046240856  1.0000
  C   C15       1.0  0.988845475711277  0.7739962831253462  0.910270757543534  1.0000
  C   C16       1.0  0.011154523653002926  0.2260037158365306  0.08972924254446324  1.0000
  C   C17       1.0  0.857838978366553  0.023932106649874194  0.577466616476474  1.0000
  C   C18       1.0  0.1421610225178458  0.9760678937430256  0.4225333834181892  1.0000
  C   C19       1.0  0.07105108126816315  0.945500102941672  0.5862511410898419  1.0000
  C   C20       1.0  0.9289489180961166  0.05449989602020484  0.4137488589981554  1.0000
  C   C21       1.0  0.7883018519772115  0.07713196485731401  0.4927401082305336  1.0000
  C   C22       1.0  0.2116981472782828  0.9228680355387896  0.5072598917554657  1.0000
  C   C23       1.0  0.14590996716181634  0.8844515629428206  0.6773642428918947  1.0000
  C   C24       1.0  0.8540900337225825  0.11554843745007931  0.32263575700276864  1.0000
  N   N1        1.0  0.8879643222127314  0.9475041234292905  0.9143672299042006  1.0000
  N   N2        1.0  0.11203567867166736  0.052495876963609425  0.08563276999046271  1.0000
  N   N3        1.0  0.20556917008395323  0.7505982311864058  0.9066626197515315  1.0000
  N   N4        1.0  0.7944308292803265  0.2494017677754709  0.09333738033646582  1.0000
  N   N5        1.0  0.873996883030091  0.6226817145094825  0.9087984244349001  1.0000
  N   N6        1.0  0.12600311785430765  0.37731828588341726  0.09120157545976328  1.0000
  O   O1        1.0  0.13698306495165946  0.2831368397588229  0.8694319103026693  1.0000
  O   O2        1.0  0.8630169343038349  0.7168631606372807  0.13056808968332984  1.0000
  O   O3        1.0  0.4649599373820672  0.06637413068709705  0.8746697770809656  1.0000
  O   O4        1.0  0.5350400635023317  0.9336258697058029  0.1253302228136977  1.0000
  O   O5        1.0  0.4643706040525331  0.385159941908436  0.9183906822431301  1.0000
  O   O6        1.0  0.5356293969406511  0.6148400570502371  0.08160931775353114  1.0000
  S   S1        1.0  0.3776322131162927  0.26831844071455646  0.8613662824621299  1.0000
  S   S2        1.0  0.6223677862479872  0.7316815582473204  0.1386337176258674  1.0000
