data_image0
_chemical_formula_structural       H32C30N2O2F4I2
_chemical_formula_sum              "H32 C30 N2 O2 F4 I2"
_cell_length_a       5.739599033578727
_cell_length_b       11.763516093514522
_cell_length_c       11.649771959804758
_cell_angle_alpha    79.43244285505818
_cell_angle_beta     76.67915583705121
_cell_angle_gamma    78.11129816241942

_space_group_name_H-M_alt    "P 1"
_space_group_IT_number       1

loop_
  _space_group_symop_operation_xyz
  'x, y, z'

loop_
  _atom_site_type_symbol
  _atom_site_label
  _atom_site_symmetry_multiplicity
  _atom_site_fract_x
  _atom_site_fract_y
  _atom_site_fract_z
  _atom_site_occupancy
  H   H1        1.0  0.0029557214825318904  0.5321340910133044  0.8852549871139329  1.0000
  H   H2        1.0  0.99704427726375  0.4678659092867841  0.11474501354914518  1.0000
  H   H3        1.0  0.20558766606804216  0.6140426898588466  0.7795092563468478  1.0000
  H   H4        1.0  0.7944123347793454  0.38595730956744423  0.22049074431554  1.0000
  H   H5        1.0  0.2501048599773813  0.5738942724945172  0.9282568876676935  1.0000
  H   H6        1.0  0.7498951391253358  0.4261057269368852  0.07174311299525346  1.0000
  H   H7        1.0  0.6779328570972484  0.4782073386119339  0.8610558968827892  1.0000
  H   H8        1.0  0.32206714411288606  0.5217926609397804  0.1389441028883521  1.0000
  H   H9        1.0  0.639755421962756  0.5241737195052015  0.7117144536016717  1.0000
  H   H10       1.0  0.3602445771462725  0.47582628092031043  0.28828554617016006  1.0000
  H   H11       1.0  0.7502350733827472  0.3737018750114175  0.7580495047185134  1.0000
  H   H12       1.0  0.24976492710820491  0.6262981252835597  0.2419504959440055  1.0000
  H   H13       1.0  0.2915298579831003  0.5222143376390938  0.5826166814638614  1.0000
  H   H14       1.0  0.7084701428642873  0.477785661787197  0.41738331919852645  1.0000
  H   H15       1.0  0.15257608858113123  0.41080957830518  0.45608019259772903  1.0000
  H   H16       1.0  0.8474239105215862  0.5891904211262222  0.5439198080652179  1.0000
  H   H17       1.0  0.06408427747848593  0.21066506334388715  0.5324169184729141  1.0000
  H   H18       1.0  0.9359157216242315  0.789334936087515  0.46758308219003286  1.0000
  H   H19       1.0  0.12396829588513313  0.11485252882547606  0.7351889305670525  1.0000
  H   H20       1.0  0.8760317028611486  0.8851474714746127  0.2648110700960256  1.0000
  H   H21       1.0  0.6722468574937533  0.16124007516115527  0.8276756366790734  1.0000
  H   H22       1.0  0.32775314161527536  0.8387599252643568  0.17232436309275834  1.0000
  H   H23       1.0  0.48799126082247984  0.05046875573170205  0.8693409390233556  1.0000
  H   H24       1.0  0.5120087382865489  0.94953124469381  0.13065906074847614  1.0000
  H   H25       1.0  0.569516139353533  0.10987520937818344  0.9818255684652586  1.0000
  H   H26       1.0  0.4304838611374191  0.8901247909167938  0.018174432197260372  1.0000
  H   H27       1.0  0.10625232925420991  0.1645174334263852  0.07619654926812126  1.0000
  H   H28       1.0  0.8937476712367421  0.835482566868592  0.9238034513943976  1.0000
  H   H29       1.0  0.03775809217730457  0.1031616914648469  0.9618817569279352  1.0000
  H   H30       1.0  0.9622419086763943  0.8968383089555538  0.03811824284333726  1.0000
  H   H31       1.0  0.9075667483065433  0.25035925950289845  0.9832874227009527  1.0000
  H   H32       1.0  0.09243325290359108  0.7496407400488156  0.016712577070188552  1.0000
  C   C1        1.0  0.36128908561418327  0.43165272075042505  0.8223193594719566  1.0000
  C   C2        1.0  0.6387109138512809  0.5683472788064006  0.17768064029974404  1.0000
  C   C3        1.0  0.19252846684921313  0.5446418468021339  0.8566329351556492  1.0000
  C   C4        1.0  0.8074715339981746  0.45535815262415685  0.1433670655067384  1.0000
  C   C5        1.0  0.6257743856530056  0.4521589716651652  0.7861352303495125  1.0000
  C   C6        1.0  0.374225613456023  0.5478410287603468  0.21386476942231933  1.0000
  C   C7        1.0  0.28493349426893944  0.38026771803137105  0.7302224328302008  1.0000
  C   C8        1.0  0.7150665051965245  0.6197322815254546  0.26977756694149985  1.0000
  C   C9        1.0  0.2560887171978883  0.43321733339477736  0.6160244151421995  1.0000
  C   C10       1.0  0.7439112840122462  0.5667826661569368  0.38397558462894177  1.0000
  C   C11       1.0  0.17864236673602651  0.370406775857919  0.5450601845870405  1.0000
  C   C12       1.0  0.8213576327294376  0.6295932236989067  0.45493981518466  1.0000
  C   C13       1.0  0.12897729993261395  0.25715247946382486  0.5879747710115963  1.0000
  C   C14       1.0  0.8710226988136679  0.7428475208362636  0.4120252296514818  1.0000
  C   C15       1.0  0.16091920353718098  0.20362113850000824  0.7020847282803861  1.0000
  C   C16       1.0  0.839080796953771  0.7963788617949691  0.29791527238213267  1.0000
  C   C17       1.0  0.24009555657535198  0.26594983088832613  0.7722045575022118  1.0000
  C   C18       1.0  0.7599044442783471  0.7340501695320745  0.22779544226906065  1.0000
  C   C19       1.0  0.2899994948691115  0.22480880165824202  0.8959161831916566  1.0000
  C   C20       1.0  0.7100005045963526  0.7751911978985837  0.10408381658004394  1.0000
  C   C21       1.0  0.5202917428936307  0.13072148078512336  0.8939025094000548  1.0000
  C   C22       1.0  0.4797082565718333  0.8692785187717025  0.10609749037164586  1.0000
  C   C23       1.0  0.07176189322883127  0.18370623167675545  0.9852651402687556  1.0000
  C   C24       1.0  0.9282381076248676  0.8162937687436452  0.014734859502517001  1.0000
  C   C25       1.0  0.6598308236864124  0.01602301342470539  0.565484088852542  1.0000
  C   C26       1.0  0.34016917716097506  0.9839769860015853  0.4345159118098457  1.0000
  C   C27       1.0  0.6345574271019848  0.08935190607224548  0.4591263529275389  1.0000
  C   C28       1.0  0.36544257410814984  0.9106480934794686  0.5408736468436023  1.0000
  C   C29       1.0  0.5254679701933781  0.9254229533279978  0.6086330816522542  1.0000
  C   C30       1.0  0.4745320285529038  0.07457704697209078  0.391366919010824  1.0000
  N   N1        1.0  0.3386368501588364  0.3348911017863992  0.9241331539531192  1.0000
  N   N2        1.0  0.6613631489501922  0.6651088986391128  0.07586684581871245  1.0000
  O   O1        1.0  0.39804265951271806  0.34121293226123667  0.022345926042991224  1.0000
  O   O2        1.0  0.6019573395899994  0.6587870671701654  0.9776540746199557  1.0000
  F   F1        1.0  0.8190681623986111  0.034510932925538404  0.6272136988117257  1.0000
  F   F2        1.0  0.1809318380923408  0.9654890673694388  0.37278630185079314  1.0000
  F   F3        1.0  0.766616962251071  0.17728438432588633  0.4227981243263584  1.0000
  F   F4        1.0  0.23338303895906326  0.8227156152258278  0.577201875444783  1.0000
  I   I1        1.0  0.5654820764968811  0.8136349762903919  0.767838852598395  1.0000
  I   I2        1.0  0.4345179226121476  0.18636502413512004  0.23216114717343667  1.0000
