data_image0
_chemical_formula_structural       H24C18N6O4F6
_chemical_formula_sum              "H24 C18 N6 O4 F6"
_cell_length_a       5.618827346264859
_cell_length_b       9.4208762499747
_cell_length_c       10.072264652471564
_cell_angle_alpha    88.47371642740649
_cell_angle_beta     86.89605324892742
_cell_angle_gamma    80.93112000692233

_space_group_name_H-M_alt    "P 1"
_space_group_IT_number       1

loop_
  _space_group_symop_operation_xyz
  'x, y, z'

loop_
  _atom_site_type_symbol
  _atom_site_label
  _atom_site_symmetry_multiplicity
  _atom_site_fract_x
  _atom_site_fract_y
  _atom_site_fract_z
  _atom_site_occupancy
  H   H1        1.0  0.960082164539746  0.10017921262200204  0.09195684821293405  1.0000
  H   H2        1.0  0.03991783620132465  0.8998207871742787  0.9080431516776785  1.0000
  H   H3        1.0  0.07784236482362512  0.24939530063088747  0.15103881020406754  1.0000
  H   H4        1.0  0.9221576359174456  0.7506046991653932  0.8489611896865448  1.0000
  H   H5        1.0  0.7331668225204521  0.4194123854685507  0.8889930016367272  1.0000
  H   H6        1.0  0.26683317794174516  0.580587615402705  0.11100699824994806  1.0000
  H   H7        1.0  0.8694850406354898  0.32346947900706063  0.7516415967323634  1.0000
  H   H8        1.0  0.13051496001513935  0.6765305207737375  0.24835840415269222  1.0000
  H   H9        1.0  0.25597453697468137  0.4909734303527299  0.49912188476924313  1.0000
  H   H10       1.0  0.744025461706918  0.5090265705214301  0.5008781151185346  1.0000
  H   H11       1.0  0.45630193622792253  0.38436093160944756  0.6087752228819815  1.0000
  H   H12       1.0  0.5436980627325504  0.6156390681897375  0.39122477700973335  1.0000
  H   H13       1.0  0.15615736492933538  0.1182959869439655  0.5646969084902039  1.0000
  H   H14       1.0  0.8438426358117354  0.8817040128523153  0.43530309140040846  1.0000
  H   H15       1.0  0.34543154168902945  0.21959253780689822  0.46801799994829607  1.0000
  H   H16       1.0  0.6545684572714435  0.7804074619922868  0.5319819999434187  1.0000
  H   H17       1.0  0.9980112484898342  0.1385481381370504  0.35118306215015777  1.0000
  H   H18       1.0  0.0019887522512363953  0.8614518616592304  0.6488169377404546  1.0000
  H   H19       1.0  0.7969090508643526  0.2578324740958533  0.45441182776104777  1.0000
  H   H20       1.0  0.20309094959784446  0.7421675267754024  0.5455881721256276  1.0000
  H   H21       1.0  0.6444574937531831  0.39380992900925316  0.2823841919493609  1.0000
  H   H22       1.0  0.3555425069878874  0.6061900707870276  0.7176158079412515  1.0000
  H   H23       1.0  0.8259929115658834  0.5090107042976822  0.19826383966352257  1.0000
  H   H24       1.0  0.17400708917518726  0.49098929549859854  0.8017361602270898  1.0000
  C   C1        1.0  0.24048483078499766  0.16017827622031325  0.9772213203259041  1.0000
  C   C2        1.0  0.7595151681754754  0.8398217235788719  0.02277867956581057  1.0000
  C   C3        1.0  0.4072223663627837  0.25510749932035603  0.9542864903195333  1.0000
  C   C4        1.0  0.5927776325976892  0.744892500478829  0.04571350957218139  1.0000
  C   C5        1.0  0.5826749251329041  0.24235826005712385  0.8493913888493543  1.0000
  C   C6        1.0  0.41732507354869536  0.7576417408170362  0.15060861103842332  1.0000
  C   C7        1.0  0.582727623370561  0.12187894749683319  0.7686082487753847  1.0000
  C   C8        1.0  0.41727237709163606  0.8781210533744226  0.23139175111129054  1.0000
  C   C9        1.0  0.4152013804619484  0.03210834603055063  0.7971751076768405  1.0000
  C   C10       1.0  0.5847986202791223  0.9678916537657303  0.2028248922137719  1.0000
  C   C11       1.0  0.26893427246326174  0.43763900012369555  0.5978020108363739  1.0000
  C   C12       1.0  0.7310657262183378  0.5623610007504645  0.4021979890514038  1.0000
  C   C13       1.0  0.16215667914927478  0.2217726954557584  0.5127880540758942  1.0000
  C   C14       1.0  0.8378433215917959  0.7782273043405225  0.4872119458147182  1.0000
  C   C15       1.0  0.979656008248762  0.2390617964128359  0.4067792750769079  1.0000
  C   C16       1.0  0.020343990711710964  0.7609382033863492  0.5932207248148068  1.0000
  C   C17       1.0  0.7957447290733979  0.453396579556318  0.2934778595362629  1.0000
  C   C18       1.0  0.20425526960820165  0.5466034213178421  0.7065221403515147  1.0000
  N   N1        1.0  0.24825553126834024  0.04785392880856024  0.8944955057072294  1.0000
  N   N2        1.0  0.7517444694727303  0.9521460709877206  0.10550449418338308  1.0000
  N   N3        1.0  0.06974084080029606  0.17755439410341253  0.07780960322804889  1.0000
  N   N4        1.0  0.9302591599407746  0.8224456056928683  0.9221903966625634  1.0000
  N   N5        1.0  0.7334322304468387  0.3395261077256729  0.8238626093306824  1.0000
  N   N6        1.0  0.26656776851363423  0.660473892073512  0.17613739056103236  1.0000
  O   O1        1.0  0.10968458347964935  0.33281288417560356  0.6098193061256306  1.0000
  O   O2        1.0  0.8903154154808237  0.6671871156235815  0.39018069376608405  1.0000
  O   O3        1.0  0.013619969599035013  0.35553363456747905  0.3154483285853473  1.0000
  O   O4        1.0  0.9863800293614379  0.6444663652317061  0.6845516713063674  1.0000
  F   F1        1.0  0.39755912893218304  0.3687242912707199  0.03939764865932232  1.0000
  F   F2        1.0  0.6024408718088876  0.6312757085255609  0.96060235123129  1.0000
  F   F3        1.0  0.7472174449564655  0.0981678079094244  0.6627032765351857  1.0000
  F   F4        1.0  0.25278255578460523  0.9018321918868563  0.3372967233554267  1.0000
  F   F5        1.0  0.4188442673425609  0.9149077507682022  0.718902697031546  1.0000
  F   F6        1.0  0.5811557316179121  0.08509224903098297  0.2810973028601688  1.0000
