data_image0
_chemical_formula_structural       H16B4N4O20P4
_chemical_formula_sum              "H16 B4 N4 O20 P4"
_cell_length_a       7.568783819040492
_cell_length_b       7.568783819040492
_cell_length_c       7.568783819040492
_cell_angle_alpha    90.0
_cell_angle_beta     90.0
_cell_angle_gamma    90.0

_space_group_name_H-M_alt    "P 1"
_space_group_IT_number       1

loop_
  _space_group_symop_operation_xyz
  'x, y, z'

loop_
  _atom_site_type_symbol
  _atom_site_label
  _atom_site_symmetry_multiplicity
  _atom_site_fract_x
  _atom_site_fract_y
  _atom_site_fract_z
  _atom_site_occupancy
  H   H1        1.0  0.16207185055465212  0.6256104710096315  0.01387722948775082  1.0000
  H   H2        1.0  0.33792814950873373  0.3743895291171402  0.5138772295511367  1.0000
  H   H3        1.0  0.8379281495721195  0.12561047094624564  0.4861227692544188  1.0000
  H   H4        1.0  0.662071850618038  0.874389529180526  0.9861227693178046  1.0000
  H   H5        1.0  0.01387722948775082  0.16207185055465212  0.6256104710096315  1.0000
  H   H6        1.0  0.5138772295511367  0.33792814950873373  0.3743895291171402  1.0000
  H   H7        1.0  0.4861227692544188  0.8379281495721195  0.12561047094624564  1.0000
  H   H8        1.0  0.9861227693178046  0.662071850618038  0.874389529180526  1.0000
  H   H9        1.0  0.6256104710096315  0.01387722948775082  0.16207185055465212  1.0000
  H   H10       1.0  0.3743895291171402  0.5138772295511367  0.33792814950873373  1.0000
  H   H11       1.0  0.12561047094624564  0.4861227692544188  0.8379281495721195  1.0000
  H   H12       1.0  0.874389529180526  0.9861227693178046  0.662071850618038  1.0000
  H   H13       1.0  0.19247397003666572  0.6924739701000516  0.8075260300901059  1.0000
  H   H14       1.0  0.3075260300267201  0.3075260300267201  0.3075260300267201  1.0000
  H   H15       1.0  0.8075260300901059  0.19247397003666572  0.6924739701000516  1.0000
  H   H16       1.0  0.6924739701000516  0.8075260300901059  0.19247397003666572  1.0000
  B   B1        1.0  0.3783445291165714  0.8783445291799572  0.6216554710102002  1.0000
  B   B2        1.0  0.12165547094681445  0.12165547094681445  0.12165547094681445  1.0000
  B   B3        1.0  0.6216554710102002  0.3783445291165714  0.8783445291799572  1.0000
  B   B4        1.0  0.8783445291799572  0.6216554710102002  0.3783445291165714  1.0000
  N   N1        1.0  0.11436213012485423  0.6143621301882402  0.8856378686807012  1.0000
  N   N2        1.0  0.3856378699385316  0.3856378699385316  0.3856378699385316  1.0000
  N   N3        1.0  0.8856378686807012  0.11436213012485423  0.6143621301882402  1.0000
  N   N4        1.0  0.6143621301882402  0.8856378686807012  0.11436213012485423  1.0000
  O   O1        1.0  0.22160645225201228  0.27839354781137354  0.7216064523153981  1.0000
  O   O2        1.0  0.27839354781137354  0.7216064523153981  0.22160645225201228  1.0000
  O   O3        1.0  0.7783935478747595  0.7783935478747595  0.7783935478747595  1.0000
  O   O4        1.0  0.7216064523153981  0.22160645225201228  0.27839354781137354  1.0000
  O   O5        1.0  0.3253323187545022  0.9616319403508466  0.793181092700447  1.0000
  O   O6        1.0  0.17466768130888366  0.03836805977592506  0.2931810926370611  1.0000
  O   O7        1.0  0.6746676813722695  0.4616319402874608  0.7068189074897105  1.0000
  O   O8        1.0  0.825332318817888  0.5383680585180947  0.20681890742632472  1.0000
  O   O9        1.0  0.793181092700447  0.3253323187545022  0.9616319403508466  1.0000
  O   O10       1.0  0.2931810926370611  0.17466768130888366  0.03836805977592506  1.0000
  O   O11       1.0  0.7068189074897105  0.6746676813722695  0.4616319402874608  1.0000
  O   O12       1.0  0.20681890742632472  0.825332318817888  0.5383680585180947  1.0000
  O   O13       1.0  0.9616319403508466  0.793181092700447  0.3253323187545022  1.0000
  O   O14       1.0  0.03836805977592506  0.2931810926370611  0.17466768130888366  1.0000
  O   O15       1.0  0.4616319402874608  0.7068189074897105  0.6746676813722695  1.0000
  O   O16       1.0  0.5383680585180947  0.20681890742632472  0.825332318817888  1.0000
  O   O17       1.0  0.48472885706822855  0.9847288571316144  0.515271143058543  1.0000
  O   O18       1.0  0.015271142995157283  0.015271142995157283  0.015271142995157283  1.0000
  O   O19       1.0  0.515271143058543  0.48472885706822855  0.9847288571316144  1.0000
  O   O20       1.0  0.9847288571316144  0.515271143058543  0.48472885706822855  1.0000
  P   P1        1.0  0.33651409405994737  0.16348590600343846  0.8365140941233332  1.0000
  P   P2        1.0  0.16348590600343846  0.8365140941233332  0.33651409405994737  1.0000
  P   P3        1.0  0.6634859060668243  0.6634859060668243  0.6634859060668243  1.0000
  P   P4        1.0  0.8365140941233332  0.33651409405994737  0.16348590600343846  1.0000
