data_image0
_chemical_formula_structural       H48C14N8O24Cl8
_chemical_formula_sum              "H48 C14 N8 O24 Cl8"
_cell_length_a       7.945207228964387
_cell_length_b       11.226129772243747
_cell_length_c       11.465148893589328
_cell_angle_alpha    77.40478134146956
_cell_angle_beta     78.81592001172673
_cell_angle_gamma    73.67758960012027

_space_group_name_H-M_alt    "P 1"
_space_group_IT_number       1

loop_
  _space_group_symop_operation_xyz
  'x, y, z'

loop_
  _atom_site_type_symbol
  _atom_site_label
  _atom_site_symmetry_multiplicity
  _atom_site_fract_x
  _atom_site_fract_y
  _atom_site_fract_z
  _atom_site_occupancy
  H   H1        1.0  0.32873532040418535  0.5907175003942238  0.3613613408158046  1.0000
  H   H2        1.0  0.6712646794179137  0.4092824990656162  0.6386386591115008  1.0000
  H   H3        1.0  0.53936738089995  0.5052646759790227  0.35512697318358777  1.0000
  H   H4        1.0  0.460632618922149  0.4947353234808171  0.6448730267437176  1.0000
  H   H5        1.0  0.4095898909954188  0.48461617725878403  0.2654554272917844  1.0000
  H   H6        1.0  0.5904101084560234  0.5153838231291438  0.7345445726360725  1.0000
  H   H7        1.0  0.6016133097757659  0.602858153523481  0.1438547007448817  1.0000
  H   H8        1.0  0.39838669004633304  0.39714184593635893  0.8561452991824237  1.0000
  H   H9        1.0  0.5573642622702382  0.7036446020578577  0.2519285036070139  1.0000
  H   H10       1.0  0.442635737181204  0.29635539833007013  0.748071496320843  1.0000
  H   H11       1.0  0.2379881687445109  0.7818586225828195  0.21323459809385056  1.0000
  H   H12       1.0  0.7620118307069311  0.21814137780510828  0.7867654018340063  1.0000
  H   H13       1.0  0.4013746089432942  0.8205454737574008  0.09017360636640766  1.0000
  H   H14       1.0  0.5986253908788048  0.17945452570243908  0.9098263935608977  1.0000
  H   H15       1.0  0.24300016977470418  0.6058411670553827  0.10957311916640475  1.0000
  H   H16       1.0  0.7569998300473948  0.39415883240445726  0.8904268807609007  1.0000
  H   H17       1.0  0.3790817762528598  0.6619144807689102  0.9953548868215678  1.0000
  H   H18       1.0  0.6209182244570053  0.3380855196207984  0.004645113104453564  1.0000
  H   H19       1.0  0.1710182724826152  0.8622007798929023  0.9649410201453671  1.0000
  H   H20       1.0  0.8289817282272498  0.13779922049680646  0.03505897978065423  1.0000
  H   H21       1.0  0.021210989019591606  0.8081358908443896  0.0899408206618044  1.0000
  H   H22       1.0  0.9787890104318505  0.19186410954353822  0.9100591792660525  1.0000
  H   H23       1.0  0.9745250304050205  0.658122095163778  0.9819044859575531  1.0000
  H   H24       1.0  0.025474969046421662  0.34187790522414985  0.018095513970303928  1.0000
  H   H25       1.0  0.1650180690619026  0.6706665791685625  0.874018720172143  1.0000
  H   H26       1.0  0.8349819307601963  0.3293334202912774  0.12598127975516243  1.0000
  H   H27       1.0  0.83002317026461  0.8871159183605061  0.8989291221205686  1.0000
  H   H28       1.0  0.16997683081591156  0.11288408110111502  0.10107087780490114  1.0000
  H   H29       1.0  0.02651386673492627  0.8911189414215948  0.7929992332127306  1.0000
  H   H30       1.0  0.9734861339749388  0.10888105896811406  0.2070007667132906  1.0000
  H   H31       1.0  0.7743583709876543  0.733512823852218  0.8072778106970979  1.0000
  H   H32       1.0  0.22564162883444477  0.26648717560762186  0.1927221892302076  1.0000
  H   H33       1.0  0.9733150131796992  0.7137834106135565  0.723767871633682  1.0000
  H   H34       1.0  0.026684986642399797  0.2862165888462835  0.27623212829362337  1.0000
  H   H35       1.0  0.9125655219543415  0.9163180002973853  0.6077234098464148  1.0000
  H   H36       1.0  0.08743447749710066  0.08368200009054252  0.39227659008144217  1.0000
  H   H37       1.0  0.7145568182526436  0.9614526594068563  0.7067738843739476  1.0000
  H   H38       1.0  0.28544318119879847  0.038547340981071536  0.2932261155539094  1.0000
  H   H39       1.0  0.6329136146617251  0.7678854019227249  0.6455015260061999  1.0000
  H   H40       1.0  0.3670863847897168  0.232114598465203  0.354498473921657  1.0000
  H   H41       1.0  0.5826407393359447  0.9231967924806495  0.5638828550289591  1.0000
  H   H42       1.0  0.41735926011549734  0.07680320790727849  0.43611714489889775  1.0000
  H   H43       1.0  0.8228552741899617  0.8704299191326667  0.411273421471503  1.0000
  H   H44       1.0  0.17714472689055996  0.12957008032895428  0.5887265784539668  1.0000
  H   H45       1.0  0.7184248786464095  0.7561429022094355  0.4437510146487997  1.0000
  H   H46       1.0  0.28157512080503255  0.24385709817849238  0.5562489852790573  1.0000
  H   H47       1.0  0.9102427199061055  0.7313634899862821  0.4938113021046546  1.0000
  H   H48       1.0  0.08975727954533665  0.2686365104016458  0.5061886978232022  1.0000
  C   C1        1.0  0.49821006234841353  0.6510347340636822  0.2083795151422504  1.0000
  C   C2        1.0  0.5017899371030285  0.3489652663242457  0.7916204847856065  1.0000
  C   C3        1.0  0.3487135330792105  0.7433496320240709  0.14731862390727696  1.0000
  C   C4        1.0  0.6512864663722316  0.2566503683638569  0.85268137602058  1.0000
  C   C5        1.0  0.12198150761609737  0.7805494648332717  0.014221051881546619  1.0000
  C   C6        1.0  0.8780184922060014  0.21945053462656858  0.9857789480457587  1.0000
  C   C7        1.0  0.052790693046601826  0.7237718041716523  0.9299454332298754  1.0000
  C   C8        1.0  0.9472093067754972  0.2762281952881877  0.07005456669742981  1.0000
  C   C9        1.0  0.9434955256776733  0.8300608571326596  0.8476274259908266  1.0000
  C   C10       1.0  0.05650447377376894  0.16993914325526807  0.15237257393703038  1.0000
  C   C11       1.0  0.8003008217565274  0.8834981827457091  0.6637768524982387  1.0000
  C   C12       1.0  0.19969917788068167  0.11650181654983444  0.33622314833188494  1.0000
  C   C13       1.0  0.691251385243493  0.843383952852373  0.5911328872618696  1.0000
  C   C14       1.0  0.30874861583702873  0.15661604660924788  0.40886711266360015  1.0000
  N   N1        1.0  0.43859130778188066  0.5515907777055241  0.3046095308861992  1.0000
  N   N2        1.0  0.5614086916695613  0.4484092226824037  0.6953904690416578  1.0000
  N   N3        1.0  0.27671170150128976  0.6887943935559807  0.06563647830612314  1.0000
  N   N4        1.0  0.7232882983208092  0.31120560590385926  0.9343635216211822  1.0000
  N   N5        1.0  0.8721180813124325  0.7807190598478666  0.7619445901949187  1.0000
  N   N6        1.0  0.12788191813900965  0.21928094054006125  0.23805540973293834  1.0000
  N   N7        1.0  0.7935984314654818  0.7981523442570494  0.47851610772556086  1.0000
  N   N8        1.0  0.20640156835661694  0.20184765520279066  0.5214838922017445  1.0000
  O   O1        1.0  0.18694590222220114  0.7541769351081994  0.4484283678551955  1.0000
  O   O2        1.0  0.8130540975998977  0.24582306435164075  0.55157163207211  1.0000
  O   O3        1.0  0.28006156055615794  0.8922460185744919  0.5397517290910077  1.0000
  O   O4        1.0  0.719938440524364  0.10775398088712893  0.4602482708344621  1.0000
  O   O5        1.0  0.2257992576727211  0.7000095585454197  0.6572597830944831  1.0000
  O   O6        1.0  0.7742007421493778  0.2999904409144203  0.3427402168328223  1.0000
  O   O7        1.0  0.47580778532642654  0.6925684060978821  0.5059996271850027  1.0000
  O   O8        1.0  0.5241922157540952  0.307431593363739  0.49400037274046704  1.0000
  O   O9        1.0  0.5685484785995207  0.08311316845415188  0.15307454247635147  1.0000
  O   O10       1.0  0.43145152085192146  0.9168868319337762  0.8469254574515055  1.0000
  O   O11       1.0  0.6953534504009432  0.8810510208669415  0.09539467840112346  1.0000
  O   O12       1.0  0.304646549050499  0.11894897952098624  0.9046053215267335  1.0000
  O   O13       1.0  0.8303429113687403  0.9488540688029646  0.229845729898037  1.0000
  O   O14       1.0  0.16965708934112456  0.05114593158674398  0.7701542700279844  1.0000
  O   O15       1.0  0.5522221042389384  0.8960037816279183  0.2968997290225168  1.0000
  O   O16       1.0  0.4477778968415833  0.10399621783370266  0.703100270902953  1.0000
  O   O17       1.0  0.7785198703342321  0.566820942589096  0.38732492822957765  1.0000
  O   O18       1.0  0.22148013074628978  0.4331790568725249  0.6126750716958921  1.0000
  O   O19       1.0  0.03645520128172733  0.6399121627998088  0.29765243325173946  1.0000
  O   O20       1.0  0.9635447981697147  0.36008783758811896  0.7023475666761176  1.0000
  O   O21       1.0  0.9305430749607705  0.5173666919953668  0.1956180074247557  1.0000
  O   O22       1.0  0.06945692574909434  0.48263330839434204  0.8043819925012657  1.0000
  O   O23       1.0  0.06384744354867086  0.42183003258880064  0.37378104355106306  1.0000
  O   O24       1.0  0.9361525562734279  0.5781699668710394  0.6262189563762425  1.0000
  Cl  Cl1       1.0  0.3947066051339105  0.38905589454135947  0.12877148454190443  1.0000
  Cl  Cl2       1.0  0.6052933953910647  0.6109441056840528  0.871228516286935  1.0000
  Cl  Cl3       1.0  0.29220683557318156  0.7611829016489459  0.5377845690161809  1.0000
  Cl  Cl4       1.0  0.7077931642489176  0.238817097810894  0.4622154309111245  1.0000
  Cl  Cl5       1.0  0.6610121394970143  0.9527747011321018  0.19292990757860384  1.0000
  Cl  Cl6       1.0  0.3389878599544276  0.0472252992558261  0.8070700923492531  1.0000
  Cl  Cl7       1.0  0.9513007879158081  0.5364236721512518  0.31309253196491305  1.0000
  Cl  Cl8       1.0  0.048699211535633835  0.4635763282366761  0.686907467962944  1.0000
