data_image0
_chemical_formula_structural       H84C96N8O12S4Br4
_chemical_formula_sum              "H84 C96 N8 O12 S4 Br4"
_cell_length_a       11.978622058973999
_cell_length_b       10.086271719954542
_cell_length_c       18.23547717796779
_cell_angle_alpha    90.0
_cell_angle_beta     91.44330694111014
_cell_angle_gamma    90.0

_space_group_name_H-M_alt    "P 1"
_space_group_IT_number       1

loop_
  _space_group_symop_operation_xyz
  'x, y, z'

loop_
  _atom_site_type_symbol
  _atom_site_label
  _atom_site_symmetry_multiplicity
  _atom_site_fract_x
  _atom_site_fract_y
  _atom_site_fract_z
  _atom_site_occupancy
  H   H1        1.0  0.07971872555704552  0.9614794454539746  0.4441734241338863  1.0000
  H   H2        1.0  0.9202812748276803  0.46147944545172115  0.05582657626942309  1.0000
  H   H3        1.0  0.92028127464714  0.038520554550532285  0.5558265762025454  1.0000
  H   H4        1.0  0.07971872537650528  0.5385205545527858  0.9441734240670085  1.0000
  H   H5        1.0  0.29224796054377833  0.5768912162547039  0.710861423935476  1.0000
  H   H6        1.0  0.7077520394682171  0.07689121625245045  0.789138575785557  1.0000
  H   H7        1.0  0.7077520396487573  0.42310878374980304  0.2891385758524347  1.0000
  H   H8        1.0  0.2922479607243186  0.9231087837520565  0.21086142400235366  1.0000
  H   H9        1.0  0.20564386226528775  0.1058790115565926  0.640963231625113  1.0000
  H   H10       1.0  0.7943561377467078  0.605879011558846  0.85903676809592  1.0000
  H   H11       1.0  0.7943561379272479  0.8941209884479143  0.3590367681627977  1.0000
  H   H12       1.0  0.20564386244582802  0.3941209884456609  0.14096323169199068  1.0000
  H   H13       1.0  0.24033542633264132  0.4169675928598674  0.44189363002123466  1.0000
  H   H14       1.0  0.7596645740520845  0.9169675928621209  0.05810637038207476  1.0000
  H   H15       1.0  0.7596645738715443  0.5830324071446396  0.558106370315197  1.0000
  H   H16       1.0  0.2403354261521011  0.08303240714238605  0.9418936299543569  1.0000
  H   H17       1.0  0.2510173240635422  0.014308545715110919  0.5195052837111533  1.0000
  H   H18       1.0  0.7489826759601032  0.5143085457173644  0.9804947165584007  1.0000
  H   H19       1.0  0.7489826761406434  0.985691454289396  0.48049471662527843  1.0000
  H   H20       1.0  0.2510173234090783  0.48569145428714255  0.019505283771865684  1.0000
  H   H21       1.0  0.07041217253332044  0.3667548924625513  0.3675020468816084  1.0000
  H   H22       1.0  0.9295878278397554  0.8667548924648047  0.13249795297317996  1.0000
  H   H23       1.0  0.9295878276592151  0.6332451075419556  0.6324979529063023  1.0000
  H   H24       1.0  0.07041217235278019  0.13324510753970217  0.8675020468147308  1.0000
  H   H25       1.0  0.16346507904206975  0.43950496011622214  0.7865880926234229  1.0000
  H   H26       1.0  0.8365349209815758  0.9395049601184755  0.7134119076461313  1.0000
  H   H27       1.0  0.836534921150466  0.5604950398882848  0.21341190716448788  1.0000
  H   H28       1.0  0.16346507922261  0.060495039886031346  0.28658809269030044  1.0000
  H   H29       1.0  0.12235271393146067  0.20687698070555294  0.7517427740399131  1.0000
  H   H30       1.0  0.8776472860805349  0.7068769807078064  0.74825722568112  1.0000
  H   H31       1.0  0.8776472862610751  0.7931230192989539  0.24825722574799763  1.0000
  H   H32       1.0  0.12235271327699668  0.29312301929670054  0.25174277410062545  1.0000
  H   H33       1.0  0.7798496471720966  0.30577253375976865  0.4473503425626489  1.0000
  H   H34       1.0  0.22015035237762523  0.8057725337620221  0.05264965783449527  1.0000
  H   H35       1.0  0.22015035303208924  0.6942274662447383  0.5526496577737829  1.0000
  H   H36       1.0  0.7798496469915563  0.1942274662424848  0.9473503424957711  1.0000
  H   H37       1.0  0.7174663724670702  0.1817954315440814  0.668544638171164  1.0000
  H   H38       1.0  0.2825336275565753  0.6817954315463348  0.8314553620983901  1.0000
  H   H39       1.0  0.28253362772546553  0.8182045684604254  0.3314553616167467  1.0000
  H   H40       1.0  0.7174663726476105  0.3182045684581721  0.16854463823804167  1.0000
  H   H41       1.0  0.9651931973581201  0.3942870101478808  0.48796530834649965  1.0000
  H   H42       1.0  0.03480680301495578  0.8942870101501343  0.012034691508288734  1.0000
  H   H43       1.0  0.03480680284606554  0.605712989856626  0.512034691989932  1.0000
  H   H44       1.0  0.9651931971775799  0.10571298985437262  0.987965308279622  1.0000
  H   H45       1.0  0.02717146973675214  0.3771896837236055  0.6192904084838815  1.0000
  H   H46       1.0  0.9728285302868932  0.8771896837258588  0.8807095917856725  1.0000
  H   H47       1.0  0.9728285296207794  0.6228103162809014  0.38070959129786397  1.0000
  H   H48       1.0  0.02717146991729238  0.12281031627864798  0.11929040855075912  1.0000
  H   H49       1.0  0.9030054138070571  0.26849885618709124  0.7086309301307626  1.0000
  H   H50       1.0  0.09699458621658831  0.7684988561893447  0.7913690701387914  1.0000
  H   H51       1.0  0.09699458639712856  0.7315011438174156  0.2913690702056691  1.0000
  H   H52       1.0  0.9030054139875974  0.23150114381516218  0.20863093019764029  1.0000
  H   H53       1.0  0.6243366624932873  0.18585024001400277  0.4712555720484506  1.0000
  H   H54       1.0  0.37566333705643445  0.6858502400162563  0.028744428348693483  1.0000
  H   H55       1.0  0.3756633377108985  0.8141497599905042  0.5287444282879811  1.0000
  H   H56       1.0  0.624336662312747  0.31414975998825073  0.9712555719815731  1.0000
  H   H57       1.0  0.4582685765736912  0.393084839480992  0.48313224842672137  1.0000
  H   H58       1.0  0.5417314229643806  0.8930848394832455  0.016867751421901698  1.0000
  H   H59       1.0  0.5417314227838403  0.606915160523515  0.516867751355024  1.0000
  H   H60       1.0  0.45826857722815517  0.10691516052126147  0.983132248366009  1.0000
  H   H61       1.0  0.41896188929974193  0.21170926079409885  0.259407873692823  1.0000
  H   H62       1.0  0.581038111073334  0.7117092607963522  0.24059212616196543  1.0000
  H   H63       1.0  0.5810381109044438  0.788290739210408  0.7405921266436087  1.0000
  H   H64       1.0  0.4189618891192017  0.2882907392081546  0.7594078736259452  1.0000
  H   H65       1.0  0.4266250787728014  0.09945014152409934  0.3368988050640293  1.0000
  H   H66       1.0  0.5733749207652703  0.5994501415263528  0.1631011947845938  1.0000
  H   H67       1.0  0.5733749205963801  0.9005498584804075  0.663101195266237  1.0000
  H   H68       1.0  0.4266250794272654  0.4005498584781541  0.8368988050033169  1.0000
  H   H69       1.0  0.4382093185471183  0.2771298639982106  0.3502035225439401  1.0000
  H   H70       1.0  0.5617906810026033  0.7771298640004641  0.14979647785320396  1.0000
  H   H71       1.0  0.5617906816570674  0.7228701360062963  0.6497964777924916  1.0000
  H   H72       1.0  0.4382093183665781  0.22287013600404282  0.8502035224770624  1.0000
  H   H73       1.0  0.568449635661266  0.06685983173206038  0.19531004224578646  1.0000
  H   H74       1.0  0.4315503647118099  0.5668598317343138  0.3046899576090019  1.0000
  H   H75       1.0  0.4315503645312697  0.9331401682724465  0.8046899575421242  1.0000
  H   H76       1.0  0.5684496354807257  0.4331401682701931  0.6953100421789088  1.0000
  H   H77       1.0  0.6983380181584276  0.021900118907464405  0.23915358275380252  1.0000
  H   H78       1.0  0.3016619813796442  0.5219001189097178  0.2608464170948206  1.0000
  H   H79       1.0  0.30166198121075394  0.9780998810970424  0.760846417576464  1.0000
  H   H80       1.0  0.6983380188128916  0.478099881094789  0.7391535826930901  1.0000
  H   H81       1.0  0.5692953589180456  0.960666452285867  0.27587933320622615  1.0000
  H   H82       1.0  0.43070464145503023  0.4606664522836136  0.2241206666485622  1.0000
  H   H83       1.0  0.43070464127449  0.03933354771863989  0.7241206665816845  1.0000
  H   H84       1.0  0.5692953587375055  0.5393335477208934  0.7758793331393485  1.0000
  C   C1        1.0  0.2566583223931868  0.2180067314317713  0.4854719552215933  1.0000
  C   C2        1.0  0.743341677156535  0.7180067314340247  0.01452804517555078  1.0000
  C   C3        1.0  0.7433416769759946  0.7819932685727355  0.5145280451086731  1.0000
  C   C4        1.0  0.2566583230476508  0.2819932685704821  0.9854719551608809  1.0000
  C   C5        1.0  0.06533546301655761  0.16137790009957573  0.40187918976964593  1.0000
  C   C6        1.0  0.934664536521514  0.6613779001018292  0.09812081007897715  1.0000
  C   C7        1.0  0.9346645363409738  0.8386220999049312  0.5981208100120995  1.0000
  C   C8        1.0  0.06533546367102161  0.3386220999026777  0.9018791897089334  1.0000
  C   C9        1.0  0.39403893448616795  0.472809792598121  0.57973074162881  1.0000
  C   C10       1.0  0.6059610655374775  0.9728097926003744  0.9202692586407439  1.0000
  C   C11       1.0  0.6059610657063678  0.5271902074063859  0.42026925815910066  1.0000
  C   C12       1.0  0.3940389346667082  0.027190207404132475  0.0797307416956877  1.0000
  C   C13       1.0  0.5411756418199521  0.17434141363860908  0.5669910607479374  1.0000
  C   C14       1.0  0.45882435820369327  0.6743414136408625  0.9330089395216168  1.0000
  C   C15       1.0  0.4588243583725835  0.8256585863658977  0.43300893903997334  1.0000
  C   C16       1.0  0.5411756411654882  0.32565858636364436  0.06699106080864976  1.0000
  C   C17       1.0  0.3172116552623705  0.4170943265068969  0.6340379914377733  1.0000
  C   C18       1.0  0.6827883447612749  0.9170943265091503  0.8659620088317808  1.0000
  C   C19       1.0  0.6827883449418152  0.58290567349761  0.36596200889865843  1.0000
  C   C20       1.0  0.31721165543126073  0.08290567349535659  0.13403799095612995  1.0000
  C   C21       1.0  0.34920592967020986  0.2540243879144223  0.5417290155777182  1.0000
  C   C22       1.0  0.6507940703417856  0.7540243879166757  0.9582709841433149  1.0000
  C   C23       1.0  0.6507940705223259  0.7459756120900846  0.45827098421019247  1.0000
  C   C24       1.0  0.3492059298507501  0.24597561208783117  0.04172901564459589  1.0000
  C   C25       1.0  0.7361396992439923  0.24129544568832703  0.5553951643088588  1.0000
  C   C26       1.0  0.26386030077965317  0.7412954456905805  0.9446048359606953  1.0000
  C   C27       1.0  0.2638603009601934  0.7587045543161799  0.44460483602757295  1.0000
  C   C28       1.0  0.7361396994245326  0.2587045543139264  0.05539516437573647  1.0000
  C   C29       1.0  0.11545779079178686  0.060678222537788054  0.44341416281396434  1.0000
  C   C30       1.0  0.8845422087462848  0.5606782225400415  0.05658583703465882  1.0000
  C   C31       1.0  0.8845422085657446  0.9393217774667189  0.5565858369677812  1.0000
  C   C32       1.0  0.11545779144625085  0.4393217774644654  0.943414162753252  1.0000
  C   C33       1.0  0.29318788566479737  0.2861245225319992  0.6143535122195332  1.0000
  C   C34       1.0  0.7068121143588482  0.7861245225342527  0.8856464880500207  1.0000
  C   C35       1.0  0.7068121145393884  0.7138754774725077  0.3856464881168985  1.0000
  C   C36       1.0  0.2931878858453376  0.21387547747025423  0.1143535122864109  1.0000
  C   C37       1.0  0.4294357924081869  0.13941646715882225  0.5512806205587119  1.0000
  C   C38       1.0  0.5705642076154586  0.6394164671610757  0.9487193797108423  1.0000
  C   C39       1.0  0.5705642069493445  0.8605835328456847  0.44871937922303357  1.0000
  C   C40       1.0  0.42943579258872716  0.3605835328434312  0.0512806206255895  1.0000
  C   C41       1.0  0.2714061199537315  0.4750663122152727  0.6958167230987347  1.0000
  C   C42       1.0  0.728593880058264  0.9750663122175262  0.8041832766222984  1.0000
  C   C43       1.0  0.7285938794037999  0.5249336877892342  0.30418327668301076  1.0000
  C   C44       1.0  0.27140612013427173  0.02493368778698076  0.19581672316561236  1.0000
  C   C45       1.0  0.22423187966125663  0.20790252416573313  0.6563144566372855  1.0000
  C   C46       1.0  0.775768120362389  0.7079025241679866  0.8436855436322687  1.0000
  C   C47       1.0  0.7757681205429291  0.7920974758387738  0.3436855436991463  1.0000
  C   C48       1.0  0.22423187900679262  0.2920974758365203  0.15631445669799784  1.0000
  C   C49       1.0  0.20708206918060085  0.31637787465975403  0.44146426702399  1.0000
  C   C50       1.0  0.7929179311924751  0.8163778746620075  0.05853573283079832  1.0000
  C   C51       1.0  0.7929179310119349  0.6836221253447529  0.5585357327639208  1.0000
  C   C52       1.0  0.20708206900006063  0.1836221253424994  0.9414642669571125  1.0000
  C   C53       1.0  0.21146596200501921  0.09004338721147333  0.48517441444553155  1.0000
  C   C54       1.0  0.7885340375330525  0.5900433872137268  0.014825585403091571  1.0000
  C   C55       1.0  0.7885340373525123  0.9099566127930335  0.5148255853362139  1.0000
  C   C56       1.0  0.21146596265948323  0.4099566127907801  0.9851744143848192  1.0000
  C   C57       1.0  0.11093886453650739  0.28844822653787405  0.3995592329837391  1.0000
  C   C58       1.0  0.8890611358365687  0.7884482265401275  0.1004407668710493  1.0000
  C   C59       1.0  0.8890611356560284  0.7115517734666329  0.6004407668041718  1.0000
  C   C60       1.0  0.11093886435596714  0.21155177346437942  0.8995592329168615  1.0000
  C   C61       1.0  0.20047294662892884  0.3977506507248926  0.7377803239422619  1.0000
  C   C62       1.0  0.7995270533947166  0.897750650727146  0.7622196763272922  1.0000
  C   C63       1.0  0.7995270535752569  0.6022493492796144  0.2622196763941698  1.0000
  C   C64       1.0  0.20047294680946912  0.10224934927736093  0.23778032400913948  1.0000
  C   C65       1.0  0.1778051453645233  0.26572211858001377  0.7182395030008168  1.0000
  C   C66       1.0  0.8221948546591221  0.7657221185822671  0.7817604972687373  1.0000
  C   C67       1.0  0.8221948548280125  0.7342778814244931  0.281760496787094  1.0000
  C   C68       1.0  0.17780514554506352  0.2342778814222397  0.21823950306769438  1.0000
  C   C69       1.0  0.80698462854801  0.3005321474735822  0.5047329884247639  1.0000
  C   C70       1.0  0.1930153714756355  0.8005321474758356  0.9952670118447899  1.0000
  C   C71       1.0  0.19301537165617577  0.6994678525309247  0.49526701191166783  1.0000
  C   C72       1.0  0.8069846287285501  0.19946785252867125  0.004732988491641581  1.0000
  C   C73       1.0  0.7710806906260668  0.22961081599836553  0.6292449106869025  1.0000
  C   C74       1.0  0.2289193093859286  0.729610816000619  0.8707550890341306  1.0000
  C   C75       1.0  0.22891930956646886  0.7703891840061414  0.37075508910100824  1.0000
  C   C76       1.0  0.771080690806607  0.27038918400388795  0.1292449107537801  1.0000
  C   C77       1.0  0.9107280492702503  0.3493466295409183  0.5279175721872552  1.0000
  C   C78       1.0  0.08927195075339524  0.8493466295431717  0.9720824280822988  1.0000
  C   C79       1.0  0.0892719509339355  0.6506533704635886  0.47208242814917645  1.0000
  C   C80       1.0  0.9107280494507904  0.1506533704613352  0.02791757225413285  1.0000
  C   C81       1.0  0.9456591713505831  0.33960014612965805  0.6013638822002322  1.0000
  C   C82       1.0  0.05434082867306233  0.8396001461319116  0.8986361180693218  1.0000
  C   C83       1.0  0.05434082885360257  0.6603998538748488  0.3986361181361994  1.0000
  C   C84       1.0  0.9456591715194734  0.1603998538725954  0.10136388171858891  1.0000
  C   C85       1.0  0.8755173081134793  0.2788772222381371  0.6514260550372265  1.0000
  C   C86       1.0  0.12448269189851625  0.7788772222403905  0.8485739446838066  1.0000
  C   C87       1.0  0.1244826920790565  0.7211227777663698  0.3485739447506843  1.0000
  C   C88       1.0  0.8755173082940195  0.22112277776411637  0.15142605510410412  1.0000
  C   C89       1.0  0.45573225794862016  0.19359497188013497  0.3141265877592218  1.0000
  C   C90       1.0  0.5442677424244557  0.6935949718823884  0.1858734120955666  1.0000
  C   C91       1.0  0.5442677422439156  0.806405028124372  0.6858734120286889  1.0000
  C   C92       1.0  0.4557322577680799  0.3064050281221185  0.8141265876923441  1.0000
  C   C93       1.0  0.6099466729732306  0.04320388862198568  0.24790079220656616  1.0000
  C   C94       1.0  0.39005332656484115  0.5432038886242391  0.25209920764205695  1.0000
  C   C95       1.0  0.39005332721930513  0.9567961113825212  0.7520992075813445  1.0000
  C   C96       1.0  0.6099466727926903  0.4567961113802677  0.7479007921396885  1.0000
  N   N1        1.0  0.40183441958489585  0.3820792000254945  0.5253642376632074  1.0000
  N   N2        1.0  0.5981655795920954  0.882079200027748  0.9746357620516606  1.0000
  N   N3        1.0  0.5981655797726355  0.6179207999790124  0.47463576211853814  1.0000
  N   N4        1.0  0.40183441976543616  0.11792079997675894  0.025364237730084966  1.0000
  N   N5        1.0  0.6319650704046202  0.19538314996027903  0.5280359987434352  1.0000
  N   N6        1.0  0.3680349296073751  0.6953831499625325  0.9719640009775979  1.0000
  N   N7        1.0  0.36803492978791535  0.8046168500442279  0.4719640010444755  1.0000
  N   N8        1.0  0.6319650705851605  0.3046168500419744  0.028035998810312844  1.0000
  O   O1        1.0  0.4446372828444941  0.5812980309067486  0.5835210722537203  1.0000
  O   O2        1.0  0.5553627171791514  0.08129803090449517  0.916478928015834  1.0000
  O   O3        1.0  0.5553627173596916  0.4187019690977583  0.41647892808271153  1.0000
  O   O4        1.0  0.4446372830250344  0.9187019691000118  0.08352107232059784  1.0000
  O   O5        1.0  0.5291777790472203  0.17996900246191078  0.6368718163011625  1.0000
  O   O6        1.0  0.4708222209647752  0.6799690024641643  0.8631281834198705  1.0000
  O   O7        1.0  0.47082222114531547  0.8200309975425961  0.36312818348674814  1.0000
  O   O8        1.0  0.5291777792277605  0.32003099754034264  0.13687181636804024  1.0000
  O   O9        1.0  0.6563666510948666  0.1469055138648077  0.37858208701569873  1.0000
  O   O10       1.0  0.3436333492782094  0.6469055138670612  0.12141791283908963  1.0000
  O   O11       1.0  0.3436333490976691  0.8530944861396992  0.621417912772212  1.0000
  O   O12       1.0  0.6563666509143263  0.3530944861374457  0.8785820869488211  1.0000
  S   S1        1.0  0.6051212606943747  0.1884091141665738  0.30545766943094216  1.0000
  S   S2        1.0  0.39487873969035125  0.6884091141688272  0.1945423309723672  1.0000
  S   S3        1.0  0.394878739509811  0.8115908858379332  0.6945423309054896  1.0000
  S   S4        1.0  0.6051212605138345  0.3115908858356796  0.8054576693640645  1.0000
  Br  Br1       1.0  0.9280307730342786  0.1271879665369338  0.3504202020466565  1.0000
  Br  Br2       1.0  0.07196922733879722  0.6271879665391873  0.14957979780813188  1.0000
  Br  Br3       1.0  0.07196922715825696  0.8728120334675732  0.6495797977412543  1.0000
  Br  Br4       1.0  0.9280307728653885  0.37281203346531966  0.8504202025282999  1.0000
