data_image0
_chemical_formula_structural       H104C92N12O32F4
_chemical_formula_sum              "H104 C92 N12 O32 F4"
_cell_length_a       4.610950972469706
_cell_length_b       15.791155021491264
_cell_length_c       29.668852571736156
_cell_angle_alpha    90.0
_cell_angle_beta     90.0
_cell_angle_gamma    90.0

_space_group_name_H-M_alt    "P 1"
_space_group_IT_number       1

loop_
  _space_group_symop_operation_xyz
  'x, y, z'

loop_
  _atom_site_type_symbol
  _atom_site_label
  _atom_site_symmetry_multiplicity
  _atom_site_fract_x
  _atom_site_fract_y
  _atom_site_fract_z
  _atom_site_occupancy
  H   H1        1.0  0.8476337231377227  0.9096936475165707  0.5015585069904581  1.0000
  H   H2        1.0  0.652366277143226  0.09030635238899258  0.0015585068511901061  1.0000
  H   H3        1.0  0.3476337223211564  0.5903063523417742  0.49844149328807785  1.0000
  H   H4        1.0  0.15236627849540982  0.40969364756378907  0.9984414930902921  1.0000
  H   H5        1.0  0.43481103181761754  0.016998467156752083  0.5275038430340001  1.0000
  H   H6        1.0  0.0651889689989487  0.9830015327488112  0.027503843231785927  1.0000
  H   H7        1.0  0.9348110304654337  0.48300153279602953  0.4724961569074821  1.0000
  H   H8        1.0  0.565188967646765  0.5169984671095337  0.9724961570467501  1.0000
  H   H9        1.0  0.0650094572225403  0.010406578225364102  0.5436193516753921  1.0000
  H   H10       1.0  0.4349905414252759  0.9895934223134651  0.04361935153612413  1.0000
  H   H11       1.0  0.5650094580391065  0.48959342236068343  0.45638064860314387  1.0000
  H   H12       1.0  0.9349905422418421  0.5104065781781457  0.956380648405358  1.0000
  H   H13       1.0  0.19714252990920783  0.10008593657962489  0.5122721582592911  1.0000
  H   H14       1.0  0.30285747090735843  0.8999140639592043  0.012272158457076915  1.0000
  H   H15       1.0  0.697142530725774  0.39991406400642265  0.48772784168219113  1.0000
  H   H16       1.0  0.8028574695551746  0.6000859365324065  0.9877278414844053  1.0000
  H   H17       1.0  0.0772033235932089  0.8766487727566292  0.4099200547305937  1.0000
  H   H18       1.0  0.4227966772233573  0.12335122714893407  0.9099200548698616  1.0000
  H   H19       1.0  0.5772033222410251  0.6233512271017156  0.5900799452108885  1.0000
  H   H20       1.0  0.9227966780399235  0.37664877280384756  0.09007994507162051  1.0000
  H   H21       1.0  0.7248211984804307  0.9204933407478701  0.41107364737180707  1.0000
  H   H22       1.0  0.7751787996317678  0.0795066591576931  0.911073647511075  1.0000
  H   H23       1.0  0.2248211998326145  0.5795066591104748  0.5889263525696751  1.0000
  H   H24       1.0  0.27517880098395175  0.4204933407950885  0.08892635276746093  1.0000
  H   H25       1.0  0.5727070501869991  0.798562874143017  0.4632567244307053  1.0000
  H   H26       1.0  0.9272929500939495  0.20143712576254627  0.9632567245699734  1.0000
  H   H27       1.0  0.07270704937043278  0.7014371257153279  0.5367432755107768  1.0000
  H   H28       1.0  0.4272929492773834  0.29856287419023536  0.03674327537150884  1.0000
  H   H29       1.0  0.4369655049532708  0.7412797787159304  0.39262838702084446  1.0000
  H   H30       1.0  0.06303449586329549  0.2587202211896328  0.8926283871601124  1.0000
  H   H31       1.0  0.936965505769837  0.7587202211424143  0.6073716129206377  1.0000
  H   H32       1.0  0.5630344945111116  0.24127977876314888  0.10737161278136972  1.0000
  H   H33       1.0  0.7458286480452474  0.7862524567140554  0.3655294539543894  1.0000
  H   H34       1.0  0.7541713522357012  0.21374754319150782  0.8655294540936574  1.0000
  H   H35       1.0  0.2458286472286812  0.7137475437775553  0.6344705459870927  1.0000
  H   H36       1.0  0.254171351419135  0.28625245676127375  0.13447054584782475  1.0000
  H   H37       1.0  0.471336629466684  0.6803458471136853  0.3283642667489216  1.0000
  H   H38       1.0  0.028663371349882272  0.31965415342514386  0.8283642668881895  1.0000
  H   H39       1.0  0.9713366281145003  0.8196541533779255  0.6716357331925605  1.0000
  H   H40       1.0  0.5286633699976985  0.18034584652763777  0.17163573305329258  1.0000
  H   H41       1.0  0.07709298409859322  0.42233191244868107  0.32796289227812914  1.0000
  H   H42       1.0  0.42290701454922297  0.5776680874568823  0.8279628920803432  1.0000
  H   H43       1.0  0.5770929849151595  0.07766808750410054  0.6720371080004068  1.0000
  H   H44       1.0  0.9229070153657892  0.9223319124014627  0.17203710786113885  1.0000
  H   H45       1.0  0.11880178801957515  0.5203137052874094  0.39071027475605763  1.0000
  H   H46       1.0  0.38119821279699106  0.47968629461815393  0.8907102745582718  1.0000
  H   H47       1.0  0.6188017866673914  0.9796862952042014  0.6092897251854246  1.0000
  H   H48       1.0  0.8811982136135572  0.02031370533462769  0.1092897253832104  1.0000
  H   H49       1.0  0.986977275874711  0.4892039233030382  0.20295100241713343  1.0000
  H   H50       1.0  0.5130227244062378  0.510796076602525  0.7029510022193476  1.0000
  H   H51       1.0  0.4869772772268947  0.010796076649743394  0.7970489975243488  1.0000
  H   H52       1.0  0.013022723589671503  0.9892039232558199  0.2970489977221346  1.0000
  H   H53       1.0  0.6301390184688391  0.5311812219298869  0.20606477231358056  1.0000
  H   H54       1.0  0.8698609818121095  0.46881877797567634  0.7060647724528485  1.0000
  H   H55       1.0  0.1301390176522729  0.9688187779284579  0.7939352276279016  1.0000
  H   H56       1.0  0.36986098316429333  0.031181221977105288  0.29393522748863365  1.0000
  H   H57       1.0  0.4228812411240208  0.3965160731737715  0.1788990624819908  1.0000
  H   H58       1.0  0.07711875752379542  0.6034839267317917  0.678899062284205  1.0000
  H   H59       1.0  0.9228812419405871  0.10348392677901012  0.8211009374594913  1.0000
  H   H60       1.0  0.5771187583403616  0.8965160731265532  0.3211009376572772  1.0000
  H   H61       1.0  0.6901163727393994  0.43642550596334867  0.14058324601246705  1.0000
  H   H62       1.0  0.8098836275415493  0.5635744939422145  0.6405832461517351  1.0000
  H   H63       1.0  0.19011637192283318  0.06357449398943292  0.8594167539290152  1.0000
  H   H64       1.0  0.30988362889373305  0.9364255059161303  0.35941675412680096  1.0000
  H   H65       1.0  0.9240238478870515  0.23897703397022452  0.22239161740571128  1.0000
  H   H66       1.0  0.5759761523938972  0.7610229659353388  0.7223916175449793  1.0000
  H   H67       1.0  0.42402384707048524  0.2610229659825571  0.7776083825357709  1.0000
  H   H68       1.0  0.07597615157733097  0.7389770339230062  0.2776083823965029  1.0000
  H   H69       1.0  0.5629798983981834  0.27913620213347345  0.22780245861070386  1.0000
  H   H70       1.0  0.9370200997140153  0.7208637984053557  0.7278024587499718  1.0000
  H   H71       1.0  0.06297989975036715  0.22086379781930818  0.7721975413307784  1.0000
  H   H72       1.0  0.4370201010661991  0.7791362020862551  0.27219754119151035  1.0000
  H   H73       1.0  0.8561463814232598  0.3282558022478639  0.2906950196050439  1.0000
  H   H74       1.0  0.6438536166889388  0.6717441976576994  0.7906950194072581  1.0000
  H   H75       1.0  0.3561463827754436  0.17174419770491772  0.7093049806734921  1.0000
  H   H76       1.0  0.1438536180411226  0.8282558022006455  0.20930498053422408  1.0000
  H   H77       1.0  0.12788836912836513  0.3698421852012486  0.25452763236263237  1.0000
  H   H78       1.0  0.3721116316882011  0.6301578147043146  0.7545276325019004  1.0000
  H   H79       1.0  0.6278883699449314  0.13015781475153299  0.7454723675788498  1.0000
  H   H80       1.0  0.8721116303360172  0.8698421851540303  0.2454723674395818  1.0000
  H   H81       1.0  0.5090043277434608  0.5732687404866668  0.06314919815216713  1.0000
  H   H82       1.0  0.9909956725374878  0.42673125941889656  0.5631491979543813  1.0000
  H   H83       1.0  0.00900432692689464  0.9267312593716782  0.9368508017893151  1.0000
  H   H84       1.0  0.49099567388967164  0.07326874053388507  0.43685080198710086  1.0000
  H   H85       1.0  0.09259140740143816  0.6237065443658654  0.17474412154850036  1.0000
  H   H86       1.0  0.4074085934151281  0.37629345553969784  0.6747441213507145  1.0000
  H   H87       1.0  0.5925914060492543  0.8762934554924794  0.8252558787300356  1.0000
  H   H88       1.0  0.9074085942316943  0.12370654441308376  0.32525587859076766  1.0000
  H   H89       1.0  0.24558230325174848  0.7105205265055036  0.03253371048530295  1.0000
  H   H90       1.0  0.25441769756481775  0.2894794734000597  0.5325337102875172  1.0000
  H   H91       1.0  0.7455823018995646  0.7894794733528413  0.9674662897932331  1.0000
  H   H92       1.0  0.754417698381384  0.2105205265527219  0.46746628965396503  1.0000
  H   H93       1.0  0.5588630122908838  0.7837321610203056  0.18675381013145012  1.0000
  H   H94       1.0  0.941136987990065  0.21626783888525763  0.6867538102707181  1.0000
  H   H95       1.0  0.05886301147431756  0.7162678388380394  0.813246189810032  1.0000
  H   H96       1.0  0.4411369893422487  0.28373216106752397  0.313246189670764  1.0000
  H   H97       1.0  0.441162142504946  0.8791942363370508  0.12187847242345848  1.0000
  H   H98       1.0  0.058837856142870196  0.12080576356851233  0.6218784725627264  1.0000
  H   H99       1.0  0.9411621433215122  0.6208057635212939  0.8781215275180237  1.0000
  H   H100      1.0  0.5588378569594364  0.3791942363842693  0.37812152771580954  1.0000
  H   H101      1.0  0.708603934309446  0.863646854928543  0.048954464837768656  1.0000
  H   H102      1.0  0.7913960659715027  0.13635314497702025  0.5489544646399829  1.0000
  H   H103      1.0  0.20860393566162982  0.6363531449298019  0.9510455351037136  1.0000
  H   H104      1.0  0.2913960651549364  0.3636468549757613  0.4510455353014994  1.0000
  C   C1        1.0  0.21227767890920266  0.031224955320173615  0.5168478033629149  1.0000
  C   C2        1.0  0.2877223219073636  0.9687750445853897  0.016847803560700682  1.0000
  C   C3        1.0  0.7122776797257689  0.468775044632608  0.4831521965785673  1.0000
  C   C4        1.0  0.7877223205551798  0.5312249552729552  0.9831521967178353  1.0000
  C   C5        1.0  0.1534333165162814  0.9874216324758424  0.4730051762557526  1.0000
  C   C6        1.0  0.3465666821315348  0.01257836742972094  0.9730051763950206  1.0000
  C   C7        1.0  0.6534333173328476  0.5125783673825026  0.5269948236857296  1.0000
  C   C8        1.0  0.846566682948101  0.4874216325230607  0.026994823546461565  1.0000
  C   C9        1.0  0.8814480904842678  0.8827056748559265  0.43065301090113306  1.0000
  C   C10       1.0  0.6185519097966808  0.11729432504963674  0.9306530107033473  1.0000
  C   C11       1.0  0.3814480918364515  0.6172943250024183  0.5693469890403492  1.0000
  C   C12       1.0  0.11855190898011471  0.3827056749031449  0.06934698923813495  1.0000
  C   C13       1.0  0.7542364255799618  0.7961737417490499  0.43933604538577015  1.0000
  C   C14       1.0  0.7457635747009869  0.20382625815651328  0.9393360455250382  1.0000
  C   C15       1.0  0.25423642693214554  0.7038262581092949  0.560663954555712  1.0000
  C   C16       1.0  0.2457635738844207  0.2961737417962683  0.06066395441644402  1.0000
  C   C17       1.0  0.6712968232542481  0.7511905813004789  0.39541495922818215  1.0000
  C   C18       1.0  0.8287031748579505  0.24880941923835026  0.8954149590303964  1.0000
  C   C19       1.0  0.17129682460643192  0.7488094191911319  0.6045850407133  1.0000
  C   C20       1.0  0.32870317621013434  0.2511905807144314  0.10458504091108584  1.0000
  C   C21       1.0  0.004349120196621599  0.6692594934073389  0.4351727077675951  1.0000
  C   C22       1.0  0.49565088061994467  0.33074050649822434  0.935172707906863  1.0000
  C   C23       1.0  0.5043491210131879  0.830740506451006  0.564827292173887  1.0000
  C   C24       1.0  0.9956508792677609  0.1692594934545573  0.06482729203461911  1.0000
  C   C25       1.0  0.8049570104216468  0.6093294028780505  0.3642844347912558  1.0000
  C   C26       1.0  0.6950429898593018  0.39067059702751283  0.8642844345934699  1.0000
  C   C27       1.0  0.3049570096050806  0.8906705969802945  0.6357155651502264  1.0000
  C   C28       1.0  0.19504298904273562  0.10932940292526878  0.13571556534801224  1.0000
  C   C29       1.0  0.6112663909957714  0.625057921764856  0.32880640518242804  1.0000
  C   C30       1.0  0.8887336092851771  0.37494207814070724  0.8288064049846422  1.0000
  C   C31       1.0  0.11126639017920519  0.8749420787267548  0.6711935947590542  1.0000
  C   C32       1.0  0.388733608468611  0.12505792181207437  0.17119359495684  1.0000
  C   C33       1.0  0.587648861629227  0.5676014463667494  0.29387004498805247  1.0000
  C   C34       1.0  0.9123511386517217  0.43239855353881385  0.7938700451273204  1.0000
  C   C35       1.0  0.08764886081266075  0.9323985534915955  0.7061299549534297  1.0000
  C   C36       1.0  0.4123511400039055  0.06760144641396777  0.20612995515121554  1.0000
  C   C37       1.0  0.7543053701430027  0.4930983813028681  0.290979361912506  1.0000
  C   C38       1.0  0.7456946301379459  0.5069016186026951  0.790979362051774  1.0000
  C   C39       1.0  0.2543053693264365  0.006901618649913542  0.7090206380289761  1.0000
  C   C40       1.0  0.24569462932137975  0.9930983812556498  0.20902063788970818  1.0000
  C   C41       1.0  0.9412971696975717  0.47860912642008036  0.3276980057281354  1.0000
  C   C42       1.0  0.558702830583377  0.5213908741187487  0.8276980058674034  1.0000
  C   C43       1.0  0.44129717104975535  0.021390873532701252  0.6723019942133467  1.0000
  C   C44       1.0  0.05870282976681082  0.978609126372862  0.17230199407407878  1.0000
  C   C45       1.0  0.9670960733749804  0.5343247291611465  0.3638012543256365  1.0000
  C   C46       1.0  0.5329039269059683  0.46567527074441667  0.8638012544649045  1.0000
  C   C47       1.0  0.4670960725584141  0.9656752706971983  0.6361987456158457  1.0000
  C   C48       1.0  0.03290392825815213  0.03432472920836494  0.13619874547657768  1.0000
  C   C49       1.0  0.7570502876395383  0.47310994919828653  0.2092785932650128  1.0000
  C   C50       1.0  0.7429497126414103  0.5268900507072767  0.7092785930672271  1.0000
  C   C51       1.0  0.25705028682297204  0.026890050754495083  0.7907214070135232  1.0000
  C   C52       1.0  0.24294971182484412  0.9731099491510682  0.29072140687425524  1.0000
  C   C53       1.0  0.6563182428242317  0.40988599891464755  0.1743361125103776  1.0000
  C   C54       1.0  0.843681757456717  0.5901140009909157  0.6743361126496455  1.0000
  C   C55       1.0  0.15631824200766548  0.09011400103813408  0.8256638874311045  1.0000
  C   C56       1.0  0.34368175664015077  0.9098859988674292  0.3256638876288904  1.0000
  C   C57       1.0  0.7917103417052184  0.29674006389163304  0.22150603445515826  1.0000
  C   C58       1.0  0.7082896585757302  0.7032599360139302  0.7215060345944262  1.0000
  C   C59       1.0  0.2917103408886521  0.2032599360611486  0.7784939654863239  1.0000
  C   C60       1.0  0.20828965992791412  0.7967400638444146  0.2784939653470559  1.0000
  C   C61       1.0  0.8917772634215566  0.35802466078672507  0.25777446908363744  1.0000
  C   C62       1.0  0.6082227368593921  0.6419753391188382  0.7577744688858516  1.0000
  C   C63       1.0  0.3917772626049904  0.1419753391660566  0.7422255308578447  1.0000
  C   C64       1.0  0.1082227360428258  0.8580246607395067  0.24222553105563052  1.0000
  C   C65       1.0  0.22991704885384467  0.6324224299241216  0.10380883428346793  1.0000
  C   C66       1.0  0.27008294979397157  0.3675775699814417  0.6038088344227359  1.0000
  C   C67       1.0  0.7299170496704108  0.8675775699342233  0.8961911656580143  1.0000
  C   C68       1.0  0.7700829506105378  0.13242242997133993  0.3961911655187462  1.0000
  C   C69       1.0  0.02476907923807909  0.7023999013944539  0.10785102970407034  1.0000
  C   C70       1.0  0.4752309215784871  0.29760009851110936  0.6078510298433384  1.0000
  C   C71       1.0  0.5247690778858952  0.797600098463891  0.8921489702374118  1.0000
  C   C72       1.0  0.9752309223950535  0.20239990144167225  0.39214897009814387  1.0000
  C   C73       1.0  0.8795327632442409  0.7144063005300438  0.14980557907500883  1.0000
  C   C74       1.0  0.6204672370367078  0.2855936993755194  0.6498055792142768  1.0000
  C   C75       1.0  0.37953276242767453  0.7855936993283009  0.8501944208664733  1.0000
  C   C76       1.0  0.12046723622014166  0.21440630057726223  0.3501944210642592  1.0000
  C   C77       1.0  0.6696752813977761  0.7776127720415712  0.1545762657625971  1.0000
  C   C78       1.0  0.8303247188831726  0.22238722786399204  0.654576265901865  1.0000
  C   C79       1.0  0.1696752827499599  0.7223872278167737  0.8454237341788851  1.0000
  C   C80       1.0  0.33032471806660635  0.2776127720887896  0.34542373403961707  1.0000
  C   C81       1.0  0.6073141824147639  0.8304398419338419  0.1182116039546846  1.0000
  C   C82       1.0  0.8926858178661848  0.16956015797172136  0.6182116037568988  1.0000
  C   C83       1.0  0.10731418376694764  0.669560157924503  0.8817883963238514  1.0000
  C   C84       1.0  0.3926858170496186  0.33043984198106024  0.3817883961845834  1.0000
  C   C85       1.0  0.7539692225653655  0.8225376530293462  0.07742909923616136  1.0000
  C   C86       1.0  0.7460307777155832  0.17746234750948295  0.5774290993754293  1.0000
  C   C87       1.0  0.25396922391754917  0.6774623474622645  0.9225709007053208  1.0000
  C   C88       1.0  0.24603077689901703  0.32253765244329863  0.42257090056605284  1.0000
  C   C89       1.0  0.9622324909743224  0.7591388599304576  0.07195668369169667  1.0000
  C   C90       1.0  0.5377675093066262  0.24086113997510564  0.5719566838309647  1.0000
  C   C91       1.0  0.4622324901577562  0.7408611399278873  0.9280433162497854  1.0000
  C   C92       1.0  0.037767510658810004  0.259138859977676  0.42804331611051755  1.0000
  N   N1        1.0  0.7272563989557864  0.43686395140895273  0.25477840309877764  1.0000
  N   N2        1.0  0.7727436013251623  0.5631360484966106  0.7547784032380457  1.0000
  N   N3        1.0  0.22725639813922016  0.0631360485438289  0.7452215968427045  1.0000
  N   N4        1.0  0.27274360267734604  0.9368639513617344  0.24522159704049037  1.0000
  N   N5        1.0  0.8260237969869291  0.6708979112409166  0.3987061498721042  1.0000
  N   N6        1.0  0.6739762032940195  0.32910208866464674  0.8987061500113722  1.0000
  N   N7        1.0  0.32602379617036287  0.8291020886174284  0.601293850069378  1.0000
  N   N8        1.0  0.17397620247745335  0.1708979112881349  0.10129384993011  1.0000
  N   N9        1.0  0.9547986752159995  0.9258997058860636  0.4722784875525792  1.0000
  N   N10       1.0  0.5452013250649492  0.07410029401949958  0.9722784873547934  1.0000
  N   N11       1.0  0.45479867439943317  0.5741002939722811  0.5277215123889031  1.0000
  N   N12       1.0  0.045201324248382975  0.4258997059332821  0.02772151258668886  1.0000
  O   O1        1.0  0.2876969171696643  0.006376746340781004  0.4371682972450393  1.0000
  O   O2        1.0  0.21230308147815194  0.9936232535647823  0.9371682973843072  1.0000
  O   O3        1.0  0.7876969179862305  0.4936232536120006  0.5628317026964429  1.0000
  O   O4        1.0  0.7123030822947182  0.5063767462935627  0.0628317025571749  1.0000
  O   O5        1.0  0.9741584386428891  0.7417338272000498  0.4598951609944769  1.0000
  O   O6        1.0  0.5258415616380596  0.2582661733387794  0.9598951611337448  1.0000
  O   O7        1.0  0.4741584378263228  0.7582661732915611  0.5401048389470052  1.0000
  O   O8        1.0  0.02584156082149339  0.24173382661400222  0.04010483880773728  1.0000
  O   O9        1.0  0.17794092474605908  0.6136581894618671  0.4465101468945952  1.0000
  O   O10       1.0  0.32205907607050716  0.3863418104436962  0.9465101470338632  1.0000
  O   O11       1.0  0.6779409233938752  0.8863418103964779  0.5534898530468869  1.0000
  O   O12       1.0  0.8220590768870734  0.1136581895090854  0.05348985290761898  1.0000
  O   O13       1.0  0.8176526019275018  0.33182570450791254  0.17699142146813113  1.0000
  O   O14       1.0  0.6823473983534469  0.6681742953976507  0.6769914212703453  1.0000
  O   O15       1.0  0.3176526032796856  0.1681742954448691  0.8230085784733511  1.0000
  O   O16       1.0  0.18234739753688065  0.8318257044606941  0.32300857867113686  1.0000
  O   O17       1.0  0.354427255843206  0.6236327777542139  0.06336352696669155  1.0000
  O   O18       1.0  0.14557274280461022  0.3763672221513494  0.5633635267689058  1.0000
  O   O19       1.0  0.8544272566597721  0.8763672227373969  0.9366364733118444  1.0000
  O   O20       1.0  0.6455727436211764  0.12363277780143221  0.4366364731725765  1.0000
  O   O21       1.0  0.2858911269867467  0.5826138029472127  0.13548294630811808  1.0000
  O   O22       1.0  0.21410887382981952  0.41738619695835055  0.6354829461103322  1.0000
  O   O23       1.0  0.7858911278033129  0.9173861969111322  0.8645170536333641  1.0000
  O   O24       1.0  0.7141088724776357  0.08261380299443105  0.36451705383114996  1.0000
  O   O25       1.0  0.9434835277959749  0.6659747235517199  0.1858417785678912  1.0000
  O   O26       1.0  0.5565164724849737  0.33402527635384327  0.6858417783701054  1.0000
  O   O27       1.0  0.44348352697940874  0.8340252763066249  0.8141582213735911  1.0000
  O   O28       1.0  0.05651647166840747  0.16597472359893833  0.31415822157137685  1.0000
  O   O29       1.0  0.09722796071281484  0.7559191233164604  0.031505679154254576  1.0000
  O   O30       1.0  0.4027720401037514  0.24408087658910277  0.5315056792935225  1.0000
  O   O31       1.0  0.597227959360631  0.7440808765418844  0.9684943207872276  1.0000
  O   O32       1.0  0.9027720409203176  0.2559191233636789  0.4684943206479596  1.0000
  F   F1        1.0  0.3849867935267149  0.5848755659374051  0.26148721361036503  1.0000
  F   F2        1.0  0.11501320728985134  0.41512443460142406  0.761487213749633  1.0000
  F   F3        1.0  0.8849867943432812  0.9151244345542058  0.7385127863311172  1.0000
  F   F4        1.0  0.6150132059376675  0.08487556535135755  0.23851278619184915  1.0000
