data_image0
_chemical_formula_structural       H52C46N6O12F2
_chemical_formula_sum              "H52 C46 N6 O12 F2"
_cell_length_a       6.44757578871243
_cell_length_b       7.160403673133472
_cell_length_c       23.594326993026804
_cell_angle_alpha    90.0
_cell_angle_beta     93.11796597568342
_cell_angle_gamma    90.0

_space_group_name_H-M_alt    "P 1"
_space_group_IT_number       1

loop_
  _space_group_symop_operation_xyz
  'x, y, z'

loop_
  _atom_site_type_symbol
  _atom_site_label
  _atom_site_symmetry_multiplicity
  _atom_site_fract_x
  _atom_site_fract_y
  _atom_site_fract_z
  _atom_site_occupancy
  H   H1        1.0  0.3765609727554642  0.335260960077893  0.07364556009426423  1.0000
  H   H2        1.0  0.6234390273741617  0.8352609591608028  0.9263544399813654  1.0000
  H   H3        1.0  0.6036946309939755  0.1411806702732465  0.9621843566912931  1.0000
  H   H4        1.0  0.39630536913363706  0.6411806693561563  0.03781564296047609  1.0000
  H   H5        1.0  0.6224877364698544  0.3325264899427154  0.011311344734835612  1.0000
  H   H6        1.0  0.37751226365775803  0.8325264904221944  0.9886886549169335  1.0000
  H   H7        1.0  0.512608925954437  0.36417494586012183  0.9405364783710825  1.0000
  H   H8        1.0  0.4873910741731755  0.8641749463396008  0.05946352128068679  1.0000
  H   H9        1.0  0.9450826158599915  0.29154559369785504  0.035294683991708306  1.0000
  H   H10       1.0  0.05491738271636582  0.7915455927807648  0.9647053160613834  1.0000
  H   H11       1.0  0.05082559402600249  0.33794904874979564  0.10509151901933772  1.0000
  H   H12       1.0  0.9491744061036232  0.8379490478327055  0.8949084810562916  1.0000
  H   H13       1.0  0.0386345199526651  0.9518163473900221  0.0478813380352246  1.0000
  H   H14       1.0  0.9613654801769607  0.45181634691054307  0.9521186620404047  1.0000
  H   H15       1.0  0.18032591691818212  0.8288215261197572  0.1356811061268606  1.0000
  H   H16       1.0  0.8196740832094304  0.3288215270368474  0.8643188935249085  1.0000
  H   H17       1.0  0.27974947995501576  0.05852062664738386  0.14744256751436977  1.0000
  H   H18       1.0  0.7202505201725967  0.5585206271268629  0.8525574321373994  1.0000
  H   H19       1.0  0.7320891215988827  0.06692579662764876  0.2676760573649821  1.0000
  H   H20       1.0  0.2679108785307431  0.5669257957105586  0.7323239427106474  1.0000
  H   H21       1.0  0.43961485997864497  0.8416095397821112  0.32661681510393886  1.0000
  H   H22       1.0  0.5603851401509808  0.34160953930263205  0.6733831849716906  1.0000
  H   H23       1.0  0.34987013712446957  0.8935432235484716  0.22652459679078943  1.0000
  H   H24       1.0  0.6501298630051563  0.39354322306899253  0.7734754032848401  1.0000
  H   H25       1.0  0.11503166281573536  0.6172147202513758  0.42873759563153435  1.0000
  H   H26       1.0  0.8849683373138904  0.11721472116846603  0.5712624044440952  1.0000
  H   H27       1.0  0.9015549340385008  0.7751965955253111  0.4317861718129872  1.0000
  H   H28       1.0  0.09844506453785637  0.2751965964424013  0.5682138282401045  1.0000
  H   H29       1.0  0.04088114721881207  0.9039792888055717  0.5225437480293682  1.0000
  H   H30       1.0  0.9591188529108138  0.40397928972266195  0.4774562520462613  1.0000
  H   H31       1.0  0.026613129858402352  0.6558958145923592  0.5287612911970226  1.0000
  H   H32       1.0  0.9733868702712234  0.15589581550944942  0.47123870887860686  1.0000
  H   H33       1.0  0.5957450524086293  0.8876983980455422  0.5115321206819455  1.0000
  H   H34       1.0  0.4042549477189833  0.38769839756606317  0.4884678789698237  1.0000
  H   H35       1.0  0.3777684711681892  0.04095584039491254  0.5117034599305628  1.0000
  H   H36       1.0  0.6222315289614367  0.5409558408743916  0.4882965401450667  1.0000
  H   H37       1.0  0.48918079327855124  0.00968982101670215  0.4147681000705151  1.0000
  H   H38       1.0  0.5108192068510746  0.5096898214961813  0.5852319000051144  1.0000
  H   H39       1.0  0.4787484172809491  0.7605027409882026  0.4186530176244251  1.0000
  H   H40       1.0  0.5212515828466634  0.2605027405087236  0.581346982027344  1.0000
  H   H41       1.0  0.7896798268793132  0.6082830003484931  0.10153057958461567  1.0000
  H   H42       1.0  0.21032017324829938  0.10828300126558342  0.8984694200671535  1.0000
  H   H43       1.0  0.3036087860067067  0.3813094868162897  0.21567207558591026  1.0000
  H   H44       1.0  0.696391214122919  0.8813094858991994  0.7843279244897193  1.0000
  H   H45       1.0  0.2817439314018397  0.315872148170415  0.31902351000222756  1.0000
  H   H46       1.0  0.7182560687277861  0.815872148649894  0.680976490073402  1.0000
  H   H47       1.0  0.5890264852423976  0.38071921841901224  0.3854228416567052  1.0000
  H   H48       1.0  0.4109735148852148  0.8807192188984913  0.6145771579950641  1.0000
  H   H49       1.0  0.9083406452591627  0.5194043450307964  0.3484734526802999  1.0000
  H   H50       1.0  0.09165935487046331  0.019404344551317315  0.6515265473953296  1.0000
  H   H51       1.0  0.9269821425393285  0.5861542283918891  0.24560879844672426  1.0000
  H   H52       1.0  0.07301785759029725  0.08615422930897947  0.7543912016289053  1.0000
  C   C1        1.0  0.5275710469516349  0.26791041784387415  0.9767784208578817  1.0000
  C   C2        1.0  0.4724289531779909  0.7679104183233532  0.023221579217747784  1.0000
  C   C3        1.0  0.31333949921060833  0.22197512773807723  0.9942991716442119  1.0000
  C   C4        1.0  0.6866605009190175  0.7219751282175563  0.005700828431417529  1.0000
  C   C5        1.0  0.06213878857691763  0.24679821566912644  0.06796324469439081  1.0000
  C   C6        1.0  0.9378612115527082  0.7467982147520362  0.9320367553812386  1.0000
  C   C7        1.0  0.017829964386942735  0.04478302965001323  0.08394589243348798  1.0000
  C   C8        1.0  0.9821700357426831  0.5447830301294923  0.9160541076421416  1.0000
  C   C9        1.0  0.13745697793702252  0.9776306029037914  0.137927389757812  1.0000
  C   C10       1.0  0.8625430221926033  0.4776306038208817  0.8620726103178176  1.0000
  C   C11       1.0  0.787575387797048  0.022560345390319005  0.15520966981691728  1.0000
  C   C12       1.0  0.21242461233257778  0.522560345869798  0.8447903302587123  1.0000
  C   C13       1.0  0.032771109870840795  0.9799099324981881  0.23870353909388145  1.0000
  C   C14       1.0  0.967228890258785  0.47990993201870913  0.7612964609817481  1.0000
  C   C15       1.0  0.8870362177024281  0.016110556787857465  0.27950840339246585  1.0000
  C   C16       1.0  0.11296378242518439  0.5161105572673366  0.7204915962593034  1.0000
  C   C17       1.0  0.9450202377987266  0.9871963261683887  0.3359686272021346  1.0000
  C   C18       1.0  0.05497976233089928  0.48719632568890964  0.6640313728734949  1.0000
  C   C19       1.0  0.14127374762948836  0.9230159138650565  0.35620344535056925  1.0000
  C   C20       1.0  0.8587262524981242  0.4230159133855775  0.6437965543012  1.0000
  C   C21       1.0  0.2836320324944238  0.8901757178741095  0.31439908444264775  1.0000
  C   C22       1.0  0.7163679676352019  0.39017571739463053  0.6856009156329816  1.0000
  C   C23       1.0  0.231868791305509  0.9183182778747548  0.25685207213774386  1.0000
  C   C24       1.0  0.7681312088221035  0.41831827879184513  0.7431479275140254  1.0000
  C   C25       1.0  0.06767664092033217  0.7578748500397352  0.4432182866548385  1.0000
  C   C26       1.0  0.9323233592092937  0.2578748509568255  0.556781713420791  1.0000
  C   C27       1.0  0.10395634852374061  0.7706705867303603  0.507376940035154  1.0000
  C   C28       1.0  0.8960436516038718  0.27067058764745044  0.49262305961661523  1.0000
  C   C29       1.0  0.431824442016166  0.9035509051361552  0.49724756408304605  1.0000
  C   C30       1.0  0.5681755581134599  0.4035509046566762  0.5027524359925835  1.0000
  C   C31       1.0  0.4069284699638218  0.8921434253726219  0.43298649746302603  1.0000
  C   C32       1.0  0.5930715301637907  0.3921434248931428  0.5670135021887431  1.0000
  C   C33       1.0  0.6215094250462909  0.5175988881613036  0.16247021658842098  1.0000
  C   C34       1.0  0.37849057508333506  0.017598889078393867  0.8375297834872084  1.0000
  C   C35       1.0  0.6154758320478946  0.48743815423364617  0.2245520397217821  1.0000
  C   C36       1.0  0.3845241680817312  0.9874381547131251  0.7754479603538473  1.0000
  C   C37       1.0  0.43376670399358963  0.4124925304256577  0.24555254368033072  1.0000
  C   C38       1.0  0.566233296134023  0.9124925309051367  0.7544474559714386  1.0000
  C   C39       1.0  0.42254121102435255  0.3768568872904241  0.303256880746073  1.0000
  C   C40       1.0  0.5774587891052733  0.8768568877699031  0.6967431193295565  1.0000
  C   C41       1.0  0.59353487583545  0.4151251641234937  0.3404674152782792  1.0000
  C   C42       1.0  0.4064651227409073  0.9151251632064035  0.6595325847748126  1.0000
  C   C43       1.0  0.7743912826072796  0.49076843854282176  0.3196709719934447  1.0000
  C   C44       1.0  0.22560871752234615  0.9907684376257315  0.6803290280821847  1.0000
  C   C45       1.0  0.78623052385885  0.5276142857944117  0.2619253134004597  1.0000
  C   C46       1.0  0.21376947626876258  0.027614285314932728  0.7380746862513095  1.0000
  N   N1        1.0  0.18682791592806  0.9027848659223913  0.415175636996668  1.0000
  N   N2        1.0  0.8131720842015658  0.40278486544291214  0.5848243630789615  1.0000
  N   N3        1.0  0.9842037325702508  0.007020183818491681  0.18041196924144126  1.0000
  N   N4        1.0  0.015796267559374962  0.5070201829014014  0.8195880308341882  1.0000
  N   N5        1.0  0.26781277173163504  0.26960867963959195  0.04708206216511476  1.0000
  N   N6        1.0  0.7321872283979909  0.7696086787225017  0.9529179379105147  1.0000
  O   O1        1.0  0.17907299626615375  0.14404118358157467  0.9612017513992113  1.0000
  O   O2        1.0  0.8209270038634721  0.6440411840610537  0.038798248676418054  1.0000
  O   O3        1.0  0.8008052335508157  0.03482406319291769  0.09742607472172382  1.0000
  O   O4        1.0  0.19919476657881016  0.5348240636723968  0.9025739253539057  1.0000
  O   O5        1.0  0.6200833164031009  0.026153240592097726  0.1770734108292927  1.0000
  O   O6        1.0  0.3799166837265249  0.5261532410715768  0.8229265892463368  1.0000
  O   O7        1.0  0.31991764549941204  0.7586670469966308  0.5240173627507653  1.0000
  O   O8        1.0  0.6800823530769452  0.2586670465171517  0.4759826373023264  1.0000
  O   O9        1.0  0.4715084079023861  0.47985506919002896  0.12927402069633492  1.0000
  O   O10       1.0  0.5284915922272398  0.979855069669508  0.8707259793792945  1.0000
  O   O11       1.0  0.798779777932458  0.5870599049844439  0.14523205501531616  1.0000
  O   O12       1.0  0.20122022219515445  0.0870599045049649  0.8547679446364531  1.0000
  F   F1        1.0  0.8012792517237007  0.02696576461526554  0.3749578624812075  1.0000
  F   F2        1.0  0.19872074840592513  0.5269657650947446  0.625042137594422  1.0000
