data_image0
_chemical_formula_structural       H64C68N24O8Cl8
_chemical_formula_sum              "H64 C68 N24 O8 Cl8"
_cell_length_a       16.99071621684427
_cell_length_b       7.088123402368925
_cell_length_c       15.310096953444761
_cell_angle_alpha    90.0
_cell_angle_beta     109.55203396963881
_cell_angle_gamma    90.0

_space_group_name_H-M_alt    "P 1"
_space_group_IT_number       1

loop_
  _space_group_symop_operation_xyz
  'x, y, z'

loop_
  _atom_site_type_symbol
  _atom_site_label
  _atom_site_symmetry_multiplicity
  _atom_site_fract_x
  _atom_site_fract_y
  _atom_site_fract_z
  _atom_site_occupancy
  H   H1        1.0  0.43636795831004876  0.01901249348381277  0.43902291117941045  1.0000
  H   H2        1.0  0.5636320417277975  0.5190124933167075  0.060977088438004194  1.0000
  H   H3        1.0  0.5636320416727024  0.9809875061819767  0.56097708838791  1.0000
  H   H4        1.0  0.43636795825495367  0.48098750634908205  0.9390229111293162  1.0000
  H   H5        1.0  0.3870407015233322  0.9719151598993897  0.32153345966905295  1.0000
  H   H6        1.0  0.612959298137996  0.4719151600664949  0.17846654064410836  1.0000
  H   H7        1.0  0.6129592980829008  0.028084839766399826  0.678466540594014  1.0000
  H   H8        1.0  0.38704070146823716  0.5280848410101052  0.8215334596189589  1.0000
  H   H9        1.0  0.7078352704857748  0.8145360319305989  0.5884266903179282  1.0000
  H   H10       1.0  0.2921647294418813  0.31453603209770414  0.911573309199298  1.0000
  H   H11       1.0  0.2921647294969764  0.18546396773519064  0.4115733092493922  1.0000
  H   H12       1.0  0.7078352705408698  0.6854639675680855  0.08842669036802238  1.0000
  H   H13       1.0  0.7591394367097891  0.6931726962256225  0.5244971324437666  1.0000
  H   H14       1.0  0.24086056342911116  0.19317269639272766  0.9755028677665857  1.0000
  H   H15       1.0  0.24086056348420626  0.3068273034401671  0.47550286781667994  1.0000
  H   H16       1.0  0.7591394367648843  0.8068273032730618  0.02449713249386089  1.0000
  H   H17       1.0  0.5228967323364365  0.8651656202755285  0.13999954837970222  1.0000
  H   H18       1.0  0.4771032673248918  0.3651656204426337  0.36000045193345914  1.0000
  H   H19       1.0  0.4771032672697966  0.13483438080107177  0.8600004518833648  1.0000
  H   H20       1.0  0.5228967322813414  0.6348343806339666  0.639999548329608  1.0000
  H   H21       1.0  0.4178471647244556  0.8616404911854157  0.9808162420081968  1.0000
  H   H22       1.0  0.5821528352032005  0.3616404913525209  0.5191837575090292  1.0000
  H   H23       1.0  0.5821528352582956  0.1383595084803739  0.0191837575591235  1.0000
  H   H24       1.0  0.4178471647795507  0.6383595083132686  0.48081624205829115  1.0000
  H   H25       1.0  0.274447993531836  0.7411558577329872  0.9559451816638167  1.0000
  H   H26       1.0  0.7255520060193021  0.24115585648928176  0.5440548185491562  1.0000
  H   H27       1.0  0.7255520060743971  0.258844143343613  0.044054818599250374  1.0000
  H   H28       1.0  0.27444799337568687  0.7588441431765077  0.4559451810207848  1.0000
  H   H29       1.0  0.730472338116803  0.6157549921522703  0.36243265507069256  1.0000
  H   H30       1.0  0.2695276619210433  0.1157549923193754  0.1375673445467221  1.0000
  H   H31       1.0  0.26952766186594823  0.38424500751351937  0.6375673444966279  1.0000
  H   H32       1.0  0.7304723380617077  0.8842450073464141  0.8624326550205983  1.0000
  H   H33       1.0  0.9026129026645433  0.40190532363586057  0.2545612054994195  1.0000
  H   H34       1.0  0.09738709758454714  0.9019053234687554  0.24543879481112127  1.0000
  H   H35       1.0  0.09738709752945203  0.5980946760299289  0.7454387947610269  1.0000
  H   H36       1.0  0.9026129026094483  0.09809467619703419  0.7545612054493253  1.0000
  H   H37       1.0  0.9755255578905088  0.4568124489646788  0.4135023354736429  1.0000
  H   H38       1.0  0.024474442147337443  0.9568124487975735  0.08649766414377177  1.0000
  H   H39       1.0  0.02447444230348657  0.5431875521119214  0.5864976647868037  1.0000
  H   H40       1.0  0.9755255578354137  0.043187552279026625  0.9135023354235488  1.0000
  H   H41       1.0  0.9693762411687962  0.6612827830330199  0.20779899820366904  1.0000
  H   H42       1.0  0.030623758869050038  0.16128278320012504  0.29220100141374566  1.0000
  H   H43       1.0  0.030623759025199166  0.33871721663276977  0.7922010020567775  1.0000
  H   H44       1.0  0.9693762411137011  0.8387172164656644  0.7077989981535747  1.0000
  H   H45       1.0  0.8634016593428904  0.6749192964672662  0.14139746038974088  1.0000
  H   H46       1.0  0.1365983409062001  0.17491929663437142  0.35860253992079993  1.0000
  H   H47       1.0  0.13659834085110495  0.3250807031985234  0.8586025398707057  1.0000
  H   H48       1.0  0.8634016592877953  0.8250807030314181  0.6413974603396466  1.0000
  H   H49       1.0  0.008158484126463195  0.7924503935869323  0.4746500961606571  1.0000
  H   H50       1.0  0.9918415161226273  0.29245039375403753  0.025349904149883692  1.0000
  H   H51       1.0  0.9918415160675322  0.20754960607885728  0.5253499040997894  1.0000
  H   H52       1.0  0.008158484071368082  0.707549605911752  0.9746500961105629  1.0000
  H   H53       1.0  0.8722236716011903  0.9986748943499226  0.20337487660558312  1.0000
  H   H54       1.0  0.12777632864790017  0.4986748945170278  0.2966251237049577  1.0000
  H   H55       1.0  0.12777632859280505  0.001325106726677603  0.7966251236548635  1.0000
  H   H56       1.0  0.8722236715460953  0.5013251065595724  0.7033748765554889  1.0000
  H   H57       1.0  0.9462987017871418  0.05584478112608873  0.3710794462385239  1.0000
  H   H58       1.0  0.05370129787418649  0.5558447809589835  0.12892055407463746  1.0000
  H   H59       1.0  0.05370129781909134  0.9441552199505114  0.628920554024543  1.0000
  H   H60       1.0  0.9462987017320466  0.444155218706806  0.8710794461884296  1.0000
  H   H61       1.0  0.04925220078038368  0.7228417409165933  0.38841970626609046  1.0000
  H   H62       1.0  0.9507477994687068  0.2228417410836985  0.11158029404445031  1.0000
  H   H63       1.0  0.9507477994136115  0.2771582587491963  0.6115802939943561  1.0000
  H   H64       1.0  0.04925220072528854  0.7771582585820911  0.8884197062159962  1.0000
  C   C1        1.0  0.5019449532434125  0.8474473931975367  0.3791799206624907  1.0000
  C   C2        1.0  0.498055047005678  0.347447393364642  0.12082007964805014  1.0000
  C   C3        1.0  0.49805504695058295  0.1525526078790635  0.6208200795979559  1.0000
  C   C4        1.0  0.5019449531883174  0.6525526077119582  0.8791799206123966  1.0000
  C   C5        1.0  0.5077167351786402  0.7592722635445852  0.29635067857845254  1.0000
  C   C6        1.0  0.49228326485920604  0.2592722637116904  0.2036493210389621  1.0000
  C   C7        1.0  0.4922832650153552  0.2407277361212044  0.703649321681994  1.0000
  C   C8        1.0  0.5077167351235452  0.7407277359540991  0.7963506785283584  1.0000
  C   C9        1.0  0.4400855853520057  0.7519321797104618  0.20540308275496094  1.0000
  C   C10       1.0  0.5599144148970847  0.251932179877567  0.2945969175555798  1.0000
  C   C11       1.0  0.5599144148419897  0.2480678199553278  0.7945969175054857  1.0000
  C   C12       1.0  0.44008558529691066  0.7480678197882226  0.7054030827048667  1.0000
  C   C13       1.0  0.6375510957452135  0.7554179175563551  0.4537183881868533  1.0000
  C   C14       1.0  0.36244890450387707  0.2554179163126497  0.04628161212368755  1.0000
  C   C15       1.0  0.36244890444878197  0.24458208352024507  0.5462816120735934  1.0000
  C   C16       1.0  0.6375510956901184  0.7445820833531398  0.9537183881367589  1.0000
  C   C17       1.0  0.359203618957566  0.6802400122419656  0.19068926347392384  1.0000
  C   C18       1.0  0.6407963812915245  0.18024001240907078  0.3093107368366169  1.0000
  C   C19       1.0  0.6407963812364293  0.319759987423824  0.8093107367865228  1.0000
  C   C20       1.0  0.35920361890247093  0.8197599872567188  0.6906892634238296  1.0000
  C   C21       1.0  0.459823106564556  0.8137264523459542  0.12795734732980868  1.0000
  C   C22       1.0  0.5401768934732903  0.3137264525130595  0.37204265228760597  1.0000
  C   C23       1.0  0.5401768934181952  0.1862735473198353  0.8720426522375118  1.0000
  C   C24       1.0  0.45982310672070514  0.6862735471527301  0.6279573479728406  1.0000
  C   C25       1.0  0.29992460207129346  0.6801844361779443  0.10051578499351076  1.0000
  C   C26       1.0  0.7000753981777971  0.1801844363450496  0.39948421531703004  1.0000
  C   C27       1.0  0.700075398122702  0.3198155634878452  0.8994842152669358  1.0000
  C   C28       1.0  0.2999246020161984  0.8198155633207399  0.6005157849434166  1.0000
  C   C29       1.0  0.40132878886534207  0.8114473244184408  0.039532568453705404  1.0000
  C   C30       1.0  0.5986712107959862  0.3114473231747355  0.46046743185945593  1.0000
  C   C31       1.0  0.5986712107408911  0.1885526766581593  0.9604674318093617  1.0000
  C   C32       1.0  0.401328788810247  0.6885526764910541  0.5395325684036112  1.0000
  C   C33       1.0  0.32068902952034267  0.7457305989104847  0.025244709881666424  1.0000
  C   C34       1.0  0.6793109707287478  0.2457305990775898  0.4747552904288744  1.0000
  C   C35       1.0  0.6793109706736528  0.25426940075530496  0.9747552903787802  1.0000
  C   C36       1.0  0.3206890294652476  0.7542694005881997  0.5252447098315722  1.0000
  C   C37       1.0  0.7973038879624758  0.549181121578531  0.26741254942334597  1.0000
  C   C38       1.0  0.20269611228661483  0.04918112174563631  0.23258745088719482  1.0000
  C   C39       1.0  0.20269611223151973  0.45081887808725846  0.7325874508371005  1.0000
  C   C40       1.0  0.7973038879073806  0.9508188779201533  0.7674125493732518  1.0000
  C   C41       1.0  0.889370238031753  0.5427299443904029  0.27650459675591016  1.0000
  C   C42       1.0  0.11062976141833109  0.04272994455750812  0.22349540286412506  1.0000
  C   C43       1.0  0.11062976195099825  0.45727005527538667  0.7234954028114103  1.0000
  C   C44       1.0  0.8893702379766578  0.9572700551082814  0.7765045967058158  1.0000
  C   C45       1.0  0.8657808808821832  0.5960973829247795  0.4219189115238768  1.0000
  C   C46       1.0  0.13421911936690736  0.09609738309188473  0.07808108878666395  1.0000
  C   C47       1.0  0.13421911931181232  0.40390261674101  0.5780810887365698  1.0000
  C   C48       1.0  0.865780880827088  0.9039026165739048  0.9219189114737826  1.0000
  C   C49       1.0  0.9357259288737445  0.5769676623622562  0.3806201030122586  1.0000
  C   C50       1.0  0.0642740713753459  0.07696766252936137  0.11937989729828216  1.0000
  C   C51       1.0  0.06427407132025083  0.4230323373035334  0.619379897248188  1.0000
  C   C52       1.0  0.9357259288186496  0.9230323371364283  0.8806201029621644  1.0000
  C   C53       1.0  0.9072829315599016  0.6918316078358769  0.21200839683894415  1.0000
  C   C54       1.0  0.09271706868918891  0.19183160659217155  0.28799160347159664  1.0000
  C   C55       1.0  0.09271706863409386  0.3081683932407232  0.7879916034215024  1.0000
  C   C56       1.0  0.9072829315048065  0.8081683930736181  0.71200839678885  1.0000
  C   C57       1.0  0.9904952981176872  0.7568581958106231  0.40078940453971035  1.0000
  C   C58       1.0  0.009504702131403413  0.25685819456691766  0.09921059577083052  1.0000
  C   C59       1.0  0.009504702076308297  0.24314180526597706  0.5992105957207362  1.0000
  C   C60       1.0  0.990495298062592  0.7431418050988718  0.900789404489616  1.0000
  C   C61       1.0  0.9058652431712206  0.8865149678263097  0.24973736450281833  1.0000
  C   C62       1.0  0.09413475686662565  0.3865149679934149  0.25026263511459634  1.0000
  C   C63       1.0  0.09413475681153056  0.11348503325029055  0.7502626350645021  1.0000
  C   C64       1.0  0.9058652431161255  0.6134850330831852  0.7497373644527241  1.0000
  C   C65       1.0  0.9459536654839195  0.9171593905697689  0.34015642579487965  1.0000
  C   C66       1.0  0.05404633476517086  0.41715939073687414  0.15984357451566117  1.0000
  C   C67       1.0  0.05404633471007578  0.0828406105068313  0.659843574465567  1.0000
  C   C68       1.0  0.9459536654288246  0.582840610339726  0.8401564257447854  1.0000
  N   N1        1.0  0.4357796083651298  0.9452108251615465  0.38034783675437966  1.0000
  N   N2        1.0  0.5642203912961985  0.44521082532865175  0.11965216355878167  1.0000
  N   N3        1.0  0.5642203918288656  0.05478917591505371  0.6196521635060669  1.0000
  N   N4        1.0  0.43577960831003465  0.5547891757479485  0.8803478367042854  1.0000
  N   N5        1.0  0.5674289786038986  0.8342432057579219  0.4587098968991872  1.0000
  N   N6        1.0  0.4325710216451918  0.33424320592502704  0.041290103411353606  1.0000
  N   N7        1.0  0.4325710215900967  0.1657567939078677  0.5412901033612594  1.0000
  N   N8        1.0  0.5674289785488035  0.6657567937407625  0.9587098968490929  1.0000
  N   N9        1.0  0.580993400522499  0.6936057628958463  0.29684527402515537  1.0000
  N   N10       1.0  0.41900659972659154  0.19360576306295155  0.20315472628538547  1.0000
  N   N11       1.0  0.41900659967149645  0.3063942367699432  0.7031547262352913  1.0000
  N   N12       1.0  0.5809934004674039  0.806394236602838  0.7968452739750612  1.0000
  N   N13       1.0  0.6469845854864467  0.6939950380034267  0.3736729946519787  1.0000
  N   N14       1.0  0.3530154147626438  0.19399503817053187  0.1263270056585621  1.0000
  N   N15       1.0  0.3530154147075487  0.30600496307317354  0.6263270056084679  1.0000
  N   N16       1.0  0.6469845854313515  0.8060049629060684  0.8736729946018844  1.0000
  N   N17       1.0  0.7039509472432341  0.7336497581661796  0.531847987948849  1.0000
  N   N18       1.0  0.2960490528956663  0.23364975833328483  0.9681520122615034  1.0000
  N   N19       1.0  0.2960490529507613  0.2663502429104206  0.4681520123115976  1.0000
  N   N20       1.0  0.7039509472983292  0.7663502427433154  0.03184798799894324  1.0000
  N   N21       1.0  0.7898421283534389  0.5797689538851103  0.3524996958118669  1.0000
  N   N22       1.0  0.2101578718956517  0.07976895405221547  0.14750030449867393  1.0000
  N   N23       1.0  0.21015787184055656  0.42023104578067927  0.6475003044485796  1.0000
  N   N24       1.0  0.7898421282983438  0.920231045613574  0.8524996957617726  1.0000
  O   O1        1.0  0.7374885702717874  0.5321940880345385  0.19484758753992035  1.0000
  O   O2        1.0  0.2625114299773032  0.0321940882016437  0.3051524127706205  1.0000
  O   O3        1.0  0.2625114299222081  0.4678059130420617  0.8051524127205262  1.0000
  O   O4        1.0  0.7374885702166922  0.9678059128749565  0.694847587489826  1.0000
  O   O5        1.0  0.8741656953525202  0.6256796289011859  0.5040631902083026  1.0000
  O   O6        1.0  0.1258343045751359  0.1256796290682911  0.9959368093089237  1.0000
  O   O7        1.0  0.125834304630231  0.37432037076460367  0.49593680935901785  1.0000
  O   O8        1.0  0.8741656954076154  0.8743203720083091  0.0040631902583968356  1.0000
  Cl  Cl1       1.0  0.33310198657611123  0.5793295103507385  0.2800722584078566  1.0000
  Cl  Cl2       1.0  0.6668980136729793  0.07932951051784373  0.2199277419026842  1.0000
  Cl  Cl3       1.0  0.6668980136178841  0.420670489315051  0.71992774185259  1.0000
  Cl  Cl4       1.0  0.33310198652101614  0.9206704891479458  0.7800722583577625  1.0000
  Cl  Cl5       1.0  0.20052229421466272  0.5935248289545839  0.08086981996148496  1.0000
  Cl  Cl6       1.0  0.7994777058231836  0.0935248291216892  0.41913017965592975  1.0000
  Cl  Cl7       1.0  0.7994777057680885  0.4064751707112056  0.9191301796058355  1.0000
  Cl  Cl8       1.0  0.20052229415956763  0.906475171954911  0.5808698199113908  1.0000
