data_image0
_chemical_formula_structural       H52C52N8O8Cl4
_chemical_formula_sum              "H52 C52 N8 O8 Cl4"
_cell_length_a       13.179172347028898
_cell_length_b       5.609962141728162
_cell_length_c       18.130449443058232
_cell_angle_alpha    90.0
_cell_angle_beta     110.2132847392611
_cell_angle_gamma    90.0

_space_group_name_H-M_alt    "P 1"
_space_group_IT_number       1

loop_
  _space_group_symop_operation_xyz
  'x, y, z'

loop_
  _atom_site_type_symbol
  _atom_site_label
  _atom_site_symmetry_multiplicity
  _atom_site_fract_x
  _atom_site_fract_y
  _atom_site_fract_z
  _atom_site_occupancy
  H   H1        1.0  0.5825313155104532  0.8937999585956865  0.3827381757854161  1.0000
  H   H2        1.0  0.4174686837243534  0.3937999587497127  0.1172618238884289  1.0000
  H   H3        1.0  0.4174686838125844  0.10620004109626115  0.6172618236399581  1.0000
  H   H4        1.0  0.5825313158773783  0.606200040942235  0.8827381761247015  1.0000
  H   H5        1.0  0.5026020403390774  0.6205307615369438  0.4551472949983418  1.0000
  H   H6        1.0  0.4973979599334463  0.12053076169096986  0.044852705263785896  1.0000
  H   H7        1.0  0.49739795926265445  0.37946923815500394  0.5448527050147887  1.0000
  H   H8        1.0  0.5026020404273083  0.8794692380009779  0.9551472947498709  1.0000
  H   H9        1.0  0.2186116951254044  0.06874978123848609  0.38710411474811984  1.0000
  H   H10       1.0  0.7813883041094022  0.56874978108446  0.11289588492572514  1.0000
  H   H11       1.0  0.7813883044763273  0.9312502184534616  0.6128958852650106  1.0000
  H   H12       1.0  0.2186116954923295  0.43125021860748775  0.8871041150874053  1.0000
  H   H13       1.0  0.5572117369486279  0.25678699313935666  0.3026507383630058  1.0000
  H   H14       1.0  0.44278826256487286  0.7567869929853306  0.19734926189859545  1.0000
  H   H15       1.0  0.4427882626531039  0.743213006552591  0.6973492616501247  1.0000
  H   H16       1.0  0.5572117370368589  0.2432130067066172  0.8026507381145349  1.0000
  H   H17       1.0  0.4345367327718044  0.42204030084071936  0.2775257910633333  1.0000
  H   H18       1.0  0.5654632675007193  0.9220403006866932  0.22247420919879443  1.0000
  H   H19       1.0  0.5654632675889503  0.5779596988512282  0.7224742089503235  1.0000
  H   H20       1.0  0.4345367321010124  0.07795969900525443  0.777525790814336  1.0000
  H   H21       1.0  0.27266386392874925  0.9779482804691346  0.13522317555927602  1.0000
  H   H22       1.0  0.7273361363437744  0.47794828062316086  0.3647768247028517  1.0000
  H   H23       1.0  0.7273361364320055  0.022051719222812984  0.8647768244543809  1.0000
  H   H24       1.0  0.27266386401698023  0.5220517190687868  0.6352231753108052  1.0000
  H   H25       1.0  0.956371460601469  0.295381579792539  0.06475686041103755  1.0000
  H   H26       1.0  0.04362853891203172  0.7953815796385129  0.4352431398505637  1.0000
  H   H27       1.0  0.0436285390002627  0.7046184198994088  0.9352431396020928  1.0000
  H   H28       1.0  0.9563714606896999  0.20461842005343484  0.5647568601625667  1.0000
  H   H29       1.0  0.902750274045191  0.0075394893818250515  0.14799473552788603  1.0000
  H   H30       1.0  0.09724972594863843  0.5075394892277989  0.35200526414648536  1.0000
  H   H31       1.0  0.09724972555654063  0.9924605120926658  0.8520052644852444  1.0000
  H   H32       1.0  0.9027502744121163  0.492460512246692  0.6479947358671715  1.0000
  H   H33       1.0  0.03305579381983838  0.6987854981838407  0.22399987633788768  1.0000
  H   H34       1.0  0.9669442056936624  0.19878549833786696  0.27600012392371354  1.0000
  H   H35       1.0  0.9669442057818933  0.3012145015081069  0.7760001236752426  1.0000
  H   H36       1.0  0.03305579390806936  0.8012145013540807  0.7239998760894168  1.0000
  H   H37       1.0  0.23668229996849327  0.32162980683576803  0.051046491056121655  1.0000
  H   H38       1.0  0.7633176992663133  0.8216298066817419  0.44895350861772326  1.0000
  H   H39       1.0  0.7633176996332385  0.678370194638723  0.9489535089570087  1.0000
  H   H40       1.0  0.2366823003354184  0.17837019301020587  0.5510464913954071  1.0000
  H   H41       1.0  0.13370384392989187  0.5173328440868882  0.055906264389150105  1.0000
  H   H42       1.0  0.8662961563426317  0.01733284424091426  0.4440937358729776  1.0000
  H   H43       1.0  0.8662961556718398  0.48266715560505963  0.9440937356239802  1.0000
  H   H44       1.0  0.13370384401812285  0.9826671554510334  0.5559062641406793  1.0000
  H   H45       1.0  0.10458228755816036  0.29962775461479224  0.9804545509303462  1.0000
  H   H46       1.0  0.8954177131695193  0.7996277544607661  0.5195454494225961  1.0000
  H   H47       1.0  0.8954177128025943  0.7003722450771555  0.019545449083310663  1.0000
  H   H48       1.0  0.10458228719123527  0.2003722452311816  0.48045455059106074  1.0000
  H   H49       1.0  0.27126312915594336  0.3627647510956436  0.303127632600612  1.0000
  H   H50       1.0  0.7287368711165804  0.8627647509416174  0.1968723676615157  1.0000
  H   H51       1.0  0.7287368712048111  0.6372352485963042  0.6968723674130448  1.0000
  H   H52       1.0  0.27126312924417434  0.1372352487503303  0.8031276323521411  1.0000
  C   C1        1.0  0.44391432884262816  0.13198357338146152  0.3474578069872523  1.0000
  C   C2        1.0  0.5560856711512013  0.6319835732274354  0.1525421926871191  1.0000
  C   C3        1.0  0.5560856715181264  0.8680164280930293  0.6525421930264046  1.0000
  C   C4        1.0  0.4439143292095533  0.36801642646451227  0.8474578073265377  1.0000
  C   C5        1.0  0.5027913176374609  0.9284715455130418  0.3858852094785081  1.0000
  C   C6        1.0  0.4972086823563686  0.4284715456670679  0.11411479019586339  1.0000
  C   C7        1.0  0.4972086819642708  0.07152845417890596  0.6141147905346224  1.0000
  C   C8        1.0  0.502791318004386  0.5715284540248797  0.8858852098177934  1.0000
  C   C9        1.0  0.4580185573535543  0.7774206562927876  0.42614089972204927  1.0000
  C   C10       1.0  0.5419814426402753  0.27742065644681374  0.07385909995232222  1.0000
  C   C11       1.0  0.5419814422481775  0.22257934339916008  0.5738591002910811  1.0000
  C   C12       1.0  0.45801855772047934  0.7225793450276771  0.9261409000613346  1.0000
  C   C13       1.0  0.354920602985404  0.8280715382098744  0.42876022018617144  1.0000
  C   C14       1.0  0.6450793970084255  0.3280715383639005  0.0712397794882  1.0000
  C   C15       1.0  0.6450793973753507  0.17192846148207333  0.5712397798274854  1.0000
  C   C16       1.0  0.3549206033523292  0.6719284631105904  0.9287602205254569  1.0000
  C   C17       1.0  0.29990482356816894  0.025307571853999074  0.388533970034294  1.0000
  C   C18       1.0  0.7000951767043547  0.5253075716999729  0.1114660302278337  1.0000
  C   C19       1.0  0.7000951760335627  0.9746924278379485  0.6114660299788364  1.0000
  C   C20       1.0  0.2999048236564  0.47469242799197475  0.8885339697858232  1.0000
  C   C21       1.0  0.16096545729490971  0.8198212311969749  0.18392764663295275  1.0000
  C   C22       1.0  0.8390345429776139  0.31982123135100105  0.3160723536291749  1.0000
  C   C23       1.0  0.8390345430658449  0.18017876849497277  0.816072353380704  1.0000
  C   C24       1.0  0.16096545738314064  0.6801787683409466  0.6839276463844818  1.0000
  C   C25       1.0  0.19110535614403762  0.9857877683103935  0.13731160726771033  1.0000
  C   C26       1.0  0.808894644128486  0.48578776668187645  0.36268839299441735  1.0000
  C   C27       1.0  0.808894644216717  0.014212233164097426  0.8626883927459466  1.0000
  C   C28       1.0  0.1911053562322686  0.5142122330100712  0.6373116070192395  1.0000
  C   C29       1.0  0.11882378819600363  0.15838721145563406  0.09387454241489444  1.0000
  C   C30       1.0  0.8811762120765202  0.6583872113016079  0.40612545784723325  1.0000
  C   C31       1.0  0.8811762114057281  0.8416127882363137  0.9061254575982359  1.0000
  C   C32       1.0  0.11882378828423464  0.34161278839033976  0.5938745421664237  1.0000
  C   C33       1.0  0.014526243021801903  0.16264628832573919  0.098403874402971  1.0000
  C   C34       1.0  0.9854737562130047  0.6626462881717131  0.40159612527087396  1.0000
  C   C35       1.0  0.98547375657993  0.8373537113662085  0.9015961256101594  1.0000
  C   C36       1.0  0.014526243388727019  0.33735371152023463  0.5984038747422564  1.0000
  C   C37       1.0  0.9838463680565432  0.9996108437681026  0.14493450413018755  1.0000
  C   C38       1.0  0.016153631937286285  0.4996108439221288  0.35506549554418393  1.0000
  C   C39       1.0  0.016153632304211362  0.0003891559238450539  0.8550654958834693  1.0000
  C   C40       1.0  0.9838463684234683  0.5003891557698189  0.644934504469473  1.0000
  C   C41       1.0  0.05670817493748029  0.8272802369697143  0.1879206643724621  1.0000
  C   C42       1.0  0.9432918250563492  0.32728023712374055  0.3120793353019094  1.0000
  C   C43       1.0  0.9432918254232745  0.17271976272223333  0.8120793356411948  1.0000
  C   C44       1.0  0.056708175304405334  0.6727197625682072  0.6879206647117474  1.0000
  C   C45       1.0  0.2405673593480094  0.6361177704669297  0.22712686599855492  1.0000
  C   C46       1.0  0.7594326409245143  0.1361177706209558  0.2728731342635728  1.0000
  C   C47       1.0  0.7594326410127452  0.36388222922501806  0.7728731340151019  1.0000
  C   C48       1.0  0.24056735867721746  0.8638822290709919  0.7271268657495576  1.0000
  C   C49       1.0  0.15046458914461053  0.3333479518676254  0.04290945220007735  1.0000
  C   C50       1.0  0.8495354108492191  0.8333479517135992  0.4570905474742941  1.0000
  C   C51       1.0  0.8495354112161441  0.6666520496068655  0.9570905478135794  1.0000
  C   C52       1.0  0.1504645895115356  0.16665204976089165  0.5429094525393627  1.0000
  N   N1        1.0  0.34293795832583823  0.1727899628394624  0.348853528342962  1.0000
  N   N2        1.0  0.6570620419466854  0.6727899626854362  0.1511464719191656  1.0000
  N   N3        1.0  0.6570620412758935  0.8272100368524853  0.6511464716701684  1.0000
  N   N4        1.0  0.3429379584140692  0.32721003700651147  0.8488535280944912  1.0000
  N   N5        1.0  0.4847724057207485  0.2903092764006244  0.3095137804849603  1.0000
  N   N6        1.0  0.5152275945517751  0.7903092762465983  0.1904862197771674  1.0000
  N   N7        1.0  0.5152275946400061  0.7096907232913232  0.6904862195286965  1.0000
  N   N8        1.0  0.4847724050499566  0.2096907234453494  0.8095137802359631  1.0000
  O   O1        1.0  0.20900041909474537  0.49298683308904456  0.2722448409946355  1.0000
  O   O2        1.0  0.7909995808990842  0.9929868329350183  0.22775515867973592  1.0000
  O   O3        1.0  0.7909995812660091  0.5070131683854464  0.7277551590190213  1.0000
  O   O4        1.0  0.2090004194616705  0.007013168539472552  0.7722448413339209  1.0000
  O   O5        1.0  0.3311264591565887  0.6204547075477685  0.21954737002500785  1.0000
  O   O6        1.0  0.6688735411159349  0.12045470770179473  0.2804526302371198  1.0000
  O   O7        1.0  0.6688735412041659  0.3795452921441791  0.7804526299886491  1.0000
  O   O8        1.0  0.3311264584857968  0.8795452919901529  0.7195473697760105  1.0000
  Cl  Cl1       1.0  0.2967745162804317  0.6483356586216767  0.4808595031001398  1.0000
  Cl  Cl2       1.0  0.7032254837133978  0.14833565699315968  0.019140496574231537  1.0000
  Cl  Cl3       1.0  0.7032254840803229  0.35166434285281417  0.519140496913517  1.0000
  Cl  Cl4       1.0  0.29677451560963986  0.851664342698788  0.9808595028511425  1.0000
