data_image0
_chemical_formula_structural       H60C86N22O2S2
_chemical_formula_sum              "H60 C86 N22 O2 S2"
_cell_length_a       8.570944056115758
_cell_length_b       13.185354808951438
_cell_length_c       17.23881821271296
_cell_angle_alpha    100.57441971133906
_cell_angle_beta     96.34624778930988
_cell_angle_gamma    103.58374855962848

_space_group_name_H-M_alt    "P 1"
_space_group_IT_number       1

loop_
  _space_group_symop_operation_xyz
  'x, y, z'

loop_
  _atom_site_type_symbol
  _atom_site_label
  _atom_site_symmetry_multiplicity
  _atom_site_fract_x
  _atom_site_fract_y
  _atom_site_fract_z
  _atom_site_occupancy
  H   H1        1.0  0.4215322980801316  0.4657208238198887  0.8926083112090576  1.0000
  H   H2        1.0  0.5784677022245298  0.5342791761829945  0.10739168872507701  1.0000
  H   H3        1.0  0.30183078734757857  0.46490002450408086  0.7554631579707777  1.0000
  H   H4        1.0  0.6981692129570828  0.5350999754988024  0.24453684196335695  1.0000
  H   H5        1.0  0.005726646183332258  0.38138870724125806  0.7071566218203537  1.0000
  H   H6        1.0  0.9942733529504101  0.6186112927579088  0.29284337863119586  1.0000
  H   H7        1.0  0.8322395597166007  0.30116024864798113  0.7962611656784706  1.0000
  H   H8        1.0  0.1677604405880606  0.6988397513549021  0.203738834255664  1.0000
  H   H9        1.0  0.7188166796152116  0.2618114767619333  0.04829483985840917  1.0000
  H   H10       1.0  0.2811833206894499  0.73818852324095  0.9517051600757255  1.0000
  H   H11       1.0  0.7839416576210733  0.3140991474992777  0.19420854031853063  1.0000
  H   H12       1.0  0.21605834151008013  0.6859008525046345  0.805791459553471  1.0000
  H   H13       1.0  0.07186825992839861  0.39660977193302077  0.26208553958427894  1.0000
  H   H14       1.0  0.9281317403762628  0.6033902280698624  0.7379144603498556  1.0000
  H   H15       1.0  0.29323865671311605  0.4195464702283256  0.17990707333960618  1.0000
  H   H16       1.0  0.7067613435915454  0.5804535297745578  0.8200929265945285  1.0000
  H   H17       1.0  0.7978788885160114  0.41439388599415594  0.9523467264239075  1.0000
  H   H18       1.0  0.20212111061514199  0.5856061140097563  0.047653273448094086  1.0000
  H   H19       1.0  0.5923648094800672  0.386674226358752  0.9682376582336331  1.0000
  H   H20       1.0  0.4076351908245942  0.6133257736441313  0.03176234170050155  1.0000
  H   H21       1.0  0.6421517857524316  0.40587042328452566  0.8721273007236584  1.0000
  H   H22       1.0  0.3578482133787219  0.5941295767193867  0.12787269914834323  1.0000
  H   H23       1.0  0.5006597569050344  0.14876147274908938  0.7987771214276744  1.0000
  H   H24       1.0  0.49934024339962707  0.8512385272537938  0.20122287850646028  1.0000
  H   H25       1.0  0.4147097021177139  0.24750184032258862  0.8489946514116077  1.0000
  H   H26       1.0  0.5852902970160285  0.7524981596765782  0.1510053490399418  1.0000
  H   H27       1.0  0.4387366942595266  0.13829690512860895  0.8929669239655165  1.0000
  H   H28       1.0  0.5612633060451349  0.8617030948742743  0.10703307596861823  1.0000
  H   H29       1.0  0.6430641354994817  0.050049225974320745  0.8606643163983886  1.0000
  H   H30       1.0  0.3569358648077687  0.9499507740238172  0.13933568411529412  1.0000
  H   H31       1.0  0.01567549952467274  0.12280117619481323  0.9242807856188656  1.0000
  H   H32       1.0  0.9843244996064808  0.8771988238090991  0.075719214253136  1.0000
  H   H33       1.0  0.15824451526855723  0.008318179253439036  0.9169931325902948  1.0000
  H   H34       1.0  0.8417554850361042  0.9916818207494442  0.08300686734383984  1.0000
  H   H35       1.0  0.08165997709964343  0.9007231560695004  0.8324603693234315  1.0000
  H   H36       1.0  0.9183400220315102  0.09927684393441198  0.16753963054857005  1.0000
  H   H37       1.0  0.05432146755474281  0.8787351127648336  0.9291185386518401  1.0000
  H   H38       1.0  0.9456785315764107  0.12126488723907856  0.07088146122016149  1.0000
  H   H39       1.0  0.6518442337327371  0.8910873254535618  0.8664179090484768  1.0000
  H   H40       1.0  0.34815576657192415  0.10891267454932134  0.13358209088565787  1.0000
  H   H41       1.0  0.781248908515431  0.802892201646331  0.8574828285738341  1.0000
  H   H42       1.0  0.21875109061831144  0.19710779835283604  0.14251717187771545  1.0000
  H   H43       1.0  0.745026792112993  0.8683230437896253  0.7790600590344939  1.0000
  H   H44       1.0  0.2549732081916684  0.13167695621325787  0.22093994089964075  1.0000
  H   H45       1.0  0.6942461086541319  0.8005240029729364  0.5587429451121088  1.0000
  H   H46       1.0  0.3057538916505295  0.1994759970299469  0.44125705482202593  1.0000
  H   H47       1.0  0.5560834616750825  0.8589916082038105  0.6690530788896832  1.0000
  H   H48       1.0  0.4439165374586599  0.14100839179535643  0.3309469215618662  1.0000
  H   H49       1.0  0.08882934205459782  0.7274882627275463  0.5133940898065457  1.0000
  H   H50       1.0  0.9111706582500636  0.2725117372753369  0.486605910127589  1.0000
  H   H51       1.0  0.22631600074864702  0.6701169862464741  0.4030499727324747  1.0000
  H   H52       1.0  0.7736839995560144  0.32988301375640916  0.5969500272016599  1.0000
  H   H53       1.0  0.33582487941385464  0.3985129960473395  0.3682111739994178  1.0000
  H   H54       1.0  0.6641751208908068  0.6014870039555437  0.6317888259347169  1.0000
  H   H55       1.0  0.8029356787747844  0.5403699393080031  0.5228346709242854  1.0000
  H   H56       1.0  0.19706432152987696  0.45963006069488005  0.47716532900984937  1.0000
  H   H57       1.0  0.2782183781851771  0.9764019757772053  0.49010083258226983  1.0000
  H   H58       1.0  0.7217816221194844  0.02359802422567809  0.5098991673518649  1.0000
  H   H59       1.0  0.7893074387726918  0.9572021090511081  0.3783153947116113  1.0000
  H   H60       1.0  0.21069256153196947  0.042797890951774914  0.6216846052225233  1.0000
  C   C1        1.0  0.19755545956395168  0.3770516180957586  0.9209156354464522  1.0000
  C   C2        1.0  0.8024445395672019  0.6229483819081536  0.07908436442554943  1.0000
  C   C3        1.0  0.29303224853970294  0.42729963597909854  0.8710428050366346  1.0000
  C   C4        1.0  0.7069677517649585  0.5727003640237848  0.12895719489750004  1.0000
  C   C5        1.0  0.22499491723048204  0.42742101611802397  0.7938816067915124  1.0000
  C   C6        1.0  0.7750050830767683  0.5725789838801139  0.20611839372217017  1.0000
  C   C7        1.0  0.05962121515316473  0.3805332189482793  0.7671489578240144  1.0000
  C   C8        1.0  0.9403787851514966  0.619466781054604  0.23285104211012025  1.0000
  C   C9        1.0  0.9618610912435348  0.3347013327079191  0.8175071531461876  1.0000
  C   C10       1.0  0.038138909061126686  0.6652986672949642  0.18249284678794717  1.0000
  C   C11       1.0  0.02952588637533004  0.3316803182418109  0.8946781538873462  1.0000
  C   C12       1.0  0.9704741139293315  0.6683196817610725  0.10532184604678843  1.0000
  C   C13       1.0  0.9683882254707858  0.31194716491019303  0.029257881386944205  1.0000
  C   C14       1.0  0.03161177483387552  0.6880528350926902  0.9707421185471904  1.0000
  C   C15       1.0  0.8449295283898345  0.29755929562640476  0.07644528467828439  1.0000
  C   C16       1.0  0.1550704719148271  0.7024407043764784  0.9235547152558502  1.0000
  C   C17       1.0  0.8827655269882491  0.3264900934085928  0.15954943508341968  1.0000
  C   C18       1.0  0.11723447331900128  0.673509906589545  0.8404505654302629  1.0000
  C   C19       1.0  0.043333350258742145  0.3716723229185407  0.1971843580128559  1.0000
  C   C20       1.0  0.9566666488724115  0.6283276770853716  0.8028156418591458  1.0000
  C   C21       1.0  0.16725358251729236  0.3858345640371879  0.15106656612262628  1.0000
  C   C22       1.0  0.832746417787369  0.6141654359656954  0.8489334338115084  1.0000
  C   C23       1.0  0.13105280116591808  0.35507383793205566  0.06770624706939331  1.0000
  C   C24       1.0  0.8689471991387434  0.6449261620708274  0.9322937528647413  1.0000
  C   C25       1.0  0.7758840466892499  0.2134855476456361  0.9092834883138347  1.0000
  C   C26       1.0  0.22411595244190366  0.7865144523582762  0.09071651155816696  1.0000
  C   C27       1.0  0.6730564740044113  0.3733949709435528  0.9242692874491383  1.0000
  C   C28       1.0  0.32694352512933117  0.6266050290556141  0.07573071300241117  1.0000
  C   C29       1.0  0.49265843616457045  0.19451537304855646  0.8575070854516428  1.0000
  C   C30       1.0  0.5073415641400909  0.8054846269543269  0.14249291448249193  1.0000
  C   C31       1.0  0.761360120310727  0.10407909957208622  0.8869823845646925  1.0000
  C   C32       1.0  0.23863987999393435  0.8959209004307969  0.1130176153694422  1.0000
  C   C33       1.0  0.8986169169472965  0.06582212413347109  0.8991114210200167  1.0000
  C   C34       1.0  0.10138308335736496  0.934177875869412  0.10088857891411797  1.0000
  C   C35       1.0  0.05864512605829356  0.9370889773701945  0.891075481567321  1.0000
  C   C36       1.0  0.9413548742463679  0.0629110226326886  0.10892451836681376  1.0000
  C   C37       1.0  0.7615812967494182  0.8773360190727173  0.8443629317033051  1.0000
  C   C38       1.0  0.2384187035552432  0.12266398093016588  0.15563706823082943  1.0000
  C   C39       1.0  0.47132329908887755  0.7331728402475818  0.4714889851074094  1.0000
  C   C40       1.0  0.528676700042276  0.26682715975633053  0.5285110147645923  1.0000
  C   C41       1.0  0.56245994722153  0.7866108925265429  0.5487331001927164  1.0000
  C   C42       1.0  0.4375400519122123  0.2133891074726239  0.4512669002588331  1.0000
  C   C43       1.0  0.4854497991652449  0.8185921369671924  0.6105040673043233  1.0000
  C   C44       1.0  0.5145502011394166  0.18140786303569076  0.3894959326298114  1.0000
  C   C45       1.0  0.3121185807737834  0.798544184045979  0.6000710499934714  1.0000
  C   C46       1.0  0.6878814183573702  0.20145581595793333  0.3999289498785302  1.0000
  C   C47       1.0  0.22093555020964215  0.7439936951246778  0.5230541564781075  1.0000
  C   C48       1.0  0.7790644500950192  0.2560063048782054  0.47694584345602725  1.0000
  C   C49       1.0  0.2978602867223228  0.7126527536551274  0.4610278517067397  1.0000
  C   C50       1.0  0.7021397135823386  0.28734724634775577  0.5389721482273949  1.0000
  C   C51       1.0  0.5506432859731947  0.7005681088018665  0.407576655778483  1.0000
  C   C52       1.0  0.4493567143314668  0.29943189120101665  0.5924233441556517  1.0000
  C   C53       1.0  0.46454524484725535  0.6514971737975609  0.32997649568756643  1.0000
  C   C54       1.0  0.5354547554574061  0.34850282620532236  0.6700235042465682  1.0000
  C   C55       1.0  0.7206325879146603  0.7144513388672059  0.41663783300719004  1.0000
  C   C56       1.0  0.27936741239258994  0.28554866113093186  0.5833621675064926  1.0000
  C   C57       1.0  0.2339071564877388  0.832782118479362  0.6643044606206022  1.0000
  C   C58       1.0  0.7660928438169226  0.16721788152352127  0.33569553931353247  1.0000
  C   C59       1.0  0.06349736164934341  0.8159294766704132  0.6577058646620532  1.0000
  C   C60       1.0  0.936502638655318  0.18407052333247015  0.3422941352720816  1.0000
  C   C61       1.0  0.32420698109271257  0.8866826321436354  0.7402446506124923  1.0000
  C   C62       1.0  0.6757930192119489  0.11331736785924794  0.2597553493216424  1.0000
  C   C63       1.0  0.5803754421932915  0.4656905111546009  0.43655337476873834  1.0000
  C   C64       1.0  0.41962455811136995  0.5343094888482823  0.5634466251653963  1.0000
  C   C65       1.0  0.4067922538338464  0.4431392462863006  0.4258668707948388  1.0000
  C   C66       1.0  0.5932077464708151  0.5568607537165827  0.5741331291392959  1.0000
  C   C67       1.0  0.6708256589987701  0.5233893235679065  0.5129596138221497  1.0000
  C   C68       1.0  0.3291743413058912  0.4766106764349766  0.4870403861119849  1.0000
  C   C69       1.0  0.6604355414982375  0.43070537822737864  0.37332563763619137  1.0000
  C   C70       1.0  0.33956445880642394  0.5692946217755046  0.6266743622979433  1.0000
  C   C71       1.0  0.5736327174996979  0.37467129540045263  0.29710871419839263  1.0000
  C   C72       1.0  0.42636728163145565  0.6253287046034597  0.702891285673609  1.0000
  C   C73       1.0  0.831524733754806  0.452664970262669  0.38116998860841284  1.0000
  C   C74       1.0  0.16847526654985548  0.5473350297402143  0.6188300113257219  1.0000
  C   C75       1.0  0.03950105283301647  0.9624199609832408  0.4241879614372327  1.0000
  C   C76       1.0  0.960498946298137  0.037580039020671495  0.5758120384347688  1.0000
  C   C77       1.0  0.1570286480367566  0.9867133995357557  0.4952127251043009  1.0000
  C   C78       1.0  0.8429713522679048  0.013286600467127535  0.5047872748298338  1.0000
  C   C79       1.0  0.8808351238580907  0.9767748062023  0.43175048423726825  1.0000
  C   C80       1.0  0.11916487644657073  0.023225193800583216  0.5682495156968663  1.0000
  C   C81       1.0  0.07857886727259535  0.9262272460821616  0.3485317504206312  1.0000
  C   C82       1.0  0.9214211330320661  0.07377275392072159  0.6514682495135035  1.0000
  C   C83       1.0  0.23342821743967399  0.9103792605712209  0.3388354524832042  1.0000
  C   C84       1.0  0.7665717828649874  0.08962073943166234  0.6611645474509306  1.0000
  C   C85       1.0  0.9631868248756997  0.9043300506324781  0.2784002737633877  1.0000
  C   C86       1.0  0.03681317425545357  0.09566994937143425  0.7215997261086139  1.0000
  N   N1        1.0  0.9317789275126735  0.2825361115860045  0.9451445279602607  1.0000
  N   N2        1.0  0.0682210727919879  0.7174638884168787  0.05485547197387401  1.0000
  N   N3        1.0  0.6539544898675015  0.2590878690608206  0.897948099953457  1.0000
  N   N4        1.0  0.34604551043715986  0.7409121309420624  0.10205189998067761  1.0000
  N   N5        1.0  0.9039722585815131  0.9648560122991062  0.8819639121443922  1.0000
  N   N6        1.0  0.0960277417231483  0.03514398770377695  0.11803608778974242  1.0000
  N   N7        1.0  0.39504805281564565  0.6108187756704174  0.265279298442362  1.0000
  N   N8        1.0  0.6049519474890157  0.38918122433246577  0.7347207014917727  1.0000
  N   N9        1.0  0.8610455569145352  0.7239078157109514  0.4227204493498406  1.0000
  N   N10       1.0  0.13895444339012622  0.27609218429193183  0.577279550584294  1.0000
  N   N11       1.0  0.9231155166758342  0.8049372321154264  0.6551165971583879  1.0000
  N   N12       1.0  0.07688448362882724  0.19506276788745674  0.3448834027757468  1.0000
  N   N13       1.0  0.39928911824702135  0.931292397824259  0.8031940075563234  1.0000
  N   N14       1.0  0.60071088205764  0.06870760217862412  0.19680599237781124  1.0000
  N   N15       1.0  0.5048359777300986  0.3293230110676293  0.23300315530781085  1.0000
  N   N16       1.0  0.49516402140364385  0.6706769889315376  0.7669968451437387  1.0000
  N   N17       1.0  0.9730675157969297  0.46969333142139047  0.38569313067452954  1.0000
  N   N18       1.0  0.026932484507731735  0.5303066685814928  0.6143068692596052  1.0000
  N   N19       1.0  0.36256974599213254  0.8983636555357867  0.3312808915251537  1.0000
  N   N20       1.0  0.637430254312529  0.10163634446709656  0.668719108408981  1.0000
  N   N21       1.0  0.8664441338475923  0.8880695741148261  0.22099349101769947  1.0000
  N   N22       1.0  0.13355586645965806  0.11193042588331173  0.7790065094959832  1.0000
  O   O1        1.0  0.47763434184008485  0.04271742143278645  0.004737264698485463  1.0000
  O   O2        1.0  0.5223656572910687  0.9572825785711259  0.9952627351735162  1.0000
  S   S1        1.0  0.29188657463267115  0.36083437281152625  0.012133290104819169  1.0000
  S   S2        1.0  0.7081134245010713  0.6391656271876407  0.9878667103467302  1.0000
