data_image0
_chemical_formula_structural       H30C60O6I3
_chemical_formula_sum              "H30 C60 O6 I3"
_cell_length_a       10.343428197409382
_cell_length_b       12.763093545461812
_cell_length_c       8.492683954382176
_cell_angle_alpha    92.73283657448249
_cell_angle_beta     112.55811264004694
_cell_angle_gamma    83.82254623952838

_space_group_name_H-M_alt    "P 1"
_space_group_IT_number       1

loop_
  _space_group_symop_operation_xyz
  'x, y, z'

loop_
  _atom_site_type_symbol
  _atom_site_label
  _atom_site_symmetry_multiplicity
  _atom_site_fract_x
  _atom_site_fract_y
  _atom_site_fract_z
  _atom_site_occupancy
  H   H1        1.0  0.3928492586399406  0.3746128258544632  0.40166436861085625  1.0000
  H   H2        1.0  0.6071507411688363  0.6253871744662398  0.5983356321211531  1.0000
  H   H3        1.0  0.40645489751549174  0.1923854068868485  0.49993216216609104  1.0000
  H   H4        1.0  0.593545101891402  0.8076145934312203  0.50006783729086  1.0000
  H   H5        1.0  0.40074894770784075  0.06765060537000174  0.7240092057354305  1.0000
  H   H6        1.0  0.5992510526653149  0.9323493949501751  0.2759907937207208  1.0000
  H   H7        1.0  0.3695171265179035  0.046754346820351095  0.996901113894968  1.0000
  H   H8        1.0  0.6304828733966492  0.953245652712255  0.0030988868324157213  1.0000
  H   H9        1.0  0.32823160677689917  0.20133663972614793  0.16373966751868285  1.0000
  H   H10       1.0  0.6717683939981396  0.7986633605966634  0.8362603332125266  1.0000
  H   H11       1.0  0.2835343608843162  0.5718821125115979  0.25085282467383485  1.0000
  H   H12       1.0  0.7164656394888395  0.42811788780857907  0.7491471747823163  1.0000
  H   H13       1.0  0.2720777329301811  0.7542880775163148  0.15387261823669082  1.0000
  H   H14       1.0  0.7279222664767125  0.24571192280175394  0.8461273812202603  1.0000
  H   H15       1.0  0.2751023070494776  0.8787923882865509  0.9293496530369793  1.0000
  H   H16       1.0  0.7248976928650751  0.12120761124605499  0.0706503476904043  1.0000
  H   H17       1.0  0.29788650282041895  0.90010798344506  0.6512731747680064  1.0000
  H   H18       1.0  0.702113496988358  0.099892016875643  0.348726825964003  1.0000
  H   H19       1.0  0.33677233935858014  0.7456454296657384  0.4825768638383964  1.0000
  H   H20       1.0  0.6632276601540894  0.25435456986423316  0.517423135613929  1.0000
  H   H21       1.0  0.058378696709963124  0.0942668779918216  0.4019568853806936  1.0000
  H   H22       1.0  0.9416213036631924  0.9057331223283555  0.5980431140754577  1.0000
  H   H23       1.0  0.06416887768377434  0.21676053611532034  0.17636254899555087  1.0000
  H   H24       1.0  0.9358311221250024  0.7832394642053827  0.8236374517364585  1.0000
  H   H25       1.0  0.05196391580234391  0.39845438695330954  0.07524974385672167  1.0000
  H   H26       1.0  0.9480360845708117  0.6015456133668674  0.9247502555994295  1.0000
  H   H27       1.0  0.006547273164411853  0.7688079128590473  0.1554165492410308  1.0000
  H   H28       1.0  0.993452726644365  0.23119208746165576  0.8445834514909786  1.0000
  H   H29       1.0  0.03372437999799796  0.07509845527823071  0.6787222224202502  1.0000
  H   H30       1.0  0.9662756194088957  0.924901545039838  0.321277777036701  1.0000
  C   C1        1.0  0.36124554194132885  0.44699538298194097  0.6211564385838853  1.0000
  C   C2        1.0  0.6387544585376027  0.5530046165501388  0.3788435608676402  1.0000
  C   C3        1.0  0.383069967467837  0.36074200282759394  0.5218498695415374  1.0000
  C   C4        1.0  0.6169300323409399  0.6392579974931091  0.47815013119047206  1.0000
  C   C5        1.0  0.39060076892429485  0.2592558117640378  0.5777819330788331  1.0000
  C   C6        1.0  0.6093992305883745  0.7407441877659338  0.4222180663734923  1.0000
  C   C7        1.0  0.3763759956528251  0.2384519913253385  0.7334839268329668  1.0000
  C   C8        1.0  0.6236240038598444  0.7615480082046331  0.2665160726193586  1.0000
  C   C9        1.0  0.38225852308436686  0.13650180893157107  0.7961897252094585  1.0000
  C   C10       1.0  0.6177414776906718  0.8634981913912403  0.20381027552175074  1.0000
  C   C11       1.0  0.36503037998357657  0.1251414535142787  0.9481720322246303  1.0000
  C   C12       1.0  0.6349696194233171  0.8748585468037899  0.05182796723232076  1.0000
  C   C13       1.0  0.3415986042044704  0.2126492746234936  0.04479724704898192  1.0000
  C   C14       1.0  0.6584013965705683  0.7873507256993177  0.9552027536822275  1.0000
  C   C15       1.0  0.33735803706293555  0.31286245878325813  0.9868331577547029  1.0000
  C   C16       1.0  0.66264196331022  0.6871375415369188  0.013166841701448146  1.0000
  C   C17       1.0  0.35380653574329635  0.32708787994047406  0.8314074739327485  1.0000
  C   C18       1.0  0.6461934651375182  0.6729121195942401  0.16859252679383532  1.0000
  C   C19       1.0  0.34717835291941573  0.43015115470261284  0.7738994766503529  1.0000
  C   C20       1.0  0.6528216465932538  0.5698488448273586  0.22610052280197257  1.0000
  C   C21       1.0  0.32534578787457297  0.5165123496054052  0.8762461887887985  1.0000
  C   C22       1.0  0.6746542115323207  0.48348765071266364  0.12375381066815269  1.0000
  C   C23       1.0  0.31162526803340146  0.49968856123972544  0.02915255911215642  1.0000
  C   C24       1.0  0.6883747323397541  0.5003114390804515  0.9708474403439947  1.0000
  C   C25       1.0  0.2927074458511828  0.5858979126898102  0.13040519709893586  1.0000
  C   C26       1.0  0.7072925535557109  0.4141020876282584  0.8695948023580152  1.0000
  C   C27       1.0  0.2864835504894628  0.6873130054338092  0.07541499826928767  1.0000
  C   C28       1.0  0.7135164493193141  0.312686994886894  0.9245850024627217  1.0000
  C   C29       1.0  0.299480263441121  0.7082392683938065  0.9188875962541269  1.0000
  C   C30       1.0  0.7005197359657727  0.29176073192426216  0.0811124032028243  1.0000
  C   C31       1.0  0.29224857936356075  0.8102611120230017  0.8558497786751151  1.0000
  C   C32       1.0  0.7077514211153707  0.18973888750907808  0.14415022077641038  1.0000
  C   C33       1.0  0.30529574836967593  0.8217026428687376  0.7015800221288124  1.0000
  C   C34       1.0  0.6947042525111387  0.1782973566659766  0.2984199785977713  1.0000
  C   C35       1.0  0.3273251650784667  0.7342440350098388  0.6037611502790738  1.0000
  C   C36       1.0  0.6726748347303101  0.26575596531086415  0.3962388504529355  1.0000
  C   C37       1.0  0.3345339261720304  0.6339599413200786  0.6631481822642885  1.0000
  C   C38       1.0  0.6654660732348634  0.36604005899798997  0.3368518171926627  1.0000
  C   C39       1.0  0.32023521823443596  0.6196355364629347  0.8196860906549349  1.0000
  C   C40       1.0  0.6797647816801168  0.38036446306967125  0.18031391007244882  1.0000
  C   C41       1.0  0.042006837660095823  0.16350546409255162  0.47448060013167664  1.0000
  C   C42       1.0  0.957993161746798  0.8364945362255171  0.5255193993252746  1.0000
  C   C43       1.0  0.03656717055556905  0.26479000812048586  0.41040678454925733  1.0000
  C   C44       1.0  0.9634328293589837  0.7352099914121201  0.5895932161781263  1.0000
  C   C45       1.0  0.04958813035689019  0.2843584559014999  0.2534774296756459  1.0000
  C   C46       1.0  0.9504118690500037  0.7156415444165688  0.7465225697813053  1.0000
  C   C47       1.0  0.043248052156284515  0.38523084810639857  0.19618842963302655  1.0000
  C   C48       1.0  0.9567519483226469  0.6147691514256812  0.803811569818499  1.0000
  C   C49       1.0  0.02384493283404358  0.4720840236553387  0.29563004192603376  1.0000
  C   C50       1.0  0.9761550680467709  0.5279159758793756  0.70436995880055  1.0000
  C   C51       1.0  0.010986519722642545  0.4564822000013853  0.44976029156485486  1.0000
  C   C52       1.0  0.9890134800861343  0.5435178003193177  0.5502397091671545  1.0000
  C   C53       1.0  0.016493992880191537  0.35401091145880736  0.5083989223006053  1.0000
  C   C54       1.0  0.983506008000623  0.6459890880759068  0.4916010784259784  1.0000
  C   C55       1.0  0.9983696054745349  0.6590132042091978  0.33507027861141825  1.0000
  C   C56       1.0  0.001630394898620567  0.3409867961109791  0.6649297208447329  1.0000
  C   C57       1.0  0.9936593656164425  0.7587128120979602  0.27497765409219477  1.0000
  C   C58       1.0  0.006340633896227129  0.2412871874320114  0.7250223453601307  1.0000
  C   C59       1.0  0.027988866668215782  0.15319892842090366  0.6285917946088349  1.0000
  C   C60       1.0  0.9720111332463368  0.8468010711117022  0.3714082061185488  1.0000
  O   O1        1.0  0.35445261288984586  0.5480272775635606  0.5647544701843128  1.0000
  O   O2        1.0  0.6455473869189311  0.45197272275714234  0.4352455305476966  1.0000
  O   O3        1.0  0.3168960185915749  0.39870474769013065  0.08437485526055692  1.0000
  O   O4        1.0  0.683103981217202  0.6012952526305724  0.9156251454714525  1.0000
  O   O5        1.0  0.017555573345076462  0.5724495712018689  0.23819123164267778  1.0000
  O   O6        1.0  0.9824444270280791  0.42755042911830804  0.7618087678134734  1.0000
  I   I1        1.0  0.0  0.0  0.0  1.0000
  I   I2        1.0  0.2765122696095409  0.9766554362631592  0.2854943322464184  1.0000
  I   I3        1.0  0.7234877307636146  0.02334456405701774  0.7145056672097329  1.0000
