data_image0
_chemical_formula_structural       H68C52N8O8S4Cl16
_chemical_formula_sum              "H68 C52 N8 O8 S4 Cl16"
_cell_length_a       12.594938097685286
_cell_length_b       8.843966110979071
_cell_length_c       15.882263508120468
_cell_angle_alpha    90.0
_cell_angle_beta     110.29530315272727
_cell_angle_gamma    90.0

_space_group_name_H-M_alt    "P 1"
_space_group_IT_number       1

loop_
  _space_group_symop_operation_xyz
  'x, y, z'

loop_
  _atom_site_type_symbol
  _atom_site_label
  _atom_site_symmetry_multiplicity
  _atom_site_fract_x
  _atom_site_fract_y
  _atom_site_fract_z
  _atom_site_occupancy
  H   H1        1.0  0.8562869492331958  0.38723084722685275  0.287846813562701  1.0000
  H   H2        1.0  0.14371305025265457  0.8872308477368575  0.2121531869685755  1.0000
  H   H3        1.0  0.14371305050461267  0.6127691526624423  0.7121531868939495  1.0000
  H   H4        1.0  0.8562869494851539  0.11276915215243752  0.787846813488075  1.0000
  H   H5        1.0  0.8343558025497136  0.5850086075722463  0.38914916773651875  1.0000
  H   H6        1.0  0.16564419773079858  0.08500860706224152  0.11085083279634503  1.0000
  H   H7        1.0  0.16564419798275667  0.4149913923170488  0.610850832721719  1.0000
  H   H8        1.0  0.8343558028016719  0.9149913928270534  0.8891491676618927  1.0000
  H   H9        1.0  0.7064972317524745  0.5172809622507186  0.3093663915184688  1.0000
  H   H10       1.0  0.2935027685280378  0.017280961740713943  0.19063360901439497  1.0000
  H   H11       1.0  0.2935027679853341  0.4827190376385764  0.6906336089381817  1.0000
  H   H12       1.0  0.7064972320044324  0.9827190381485811  0.8093663914438427  1.0000
  H   H13       1.0  0.9684276882560916  0.08571951774655483  0.38638205747854343  1.0000
  H   H14       1.0  0.03157231173267435  0.5857195171258451  0.11361794238301229  1.0000
  H   H15       1.0  0.031572311189970635  0.9142804821427402  0.613617942306799  1.0000
  H   H16       1.0  0.9684276885080496  0.41428048276344986  0.8863820574039174  1.0000
  H   H17       1.0  0.6795306598916921  0.5472281382887643  0.4544628436340623  1.0000
  H   H18       1.0  0.32046934009707384  0.04722813777875957  0.04553715622749339  1.0000
  H   H19       1.0  0.32046934034903196  0.4527718616005307  0.5455371561528674  1.0000
  H   H20       1.0  0.6795306593489885  0.9527718621105354  0.954462843557849  1.0000
  H   H21       1.0  0.7993469053111164  0.4359119372036141  0.5100331991601934  1.0000
  H   H22       1.0  0.20065309438690393  0.9359119377136188  0.9899668005505231  1.0000
  H   H23       1.0  0.20065309413494584  0.5640880626856809  0.4899668006251491  1.0000
  H   H24       1.0  0.7993469058538201  0.06408806217567621  0.010033199236406658  1.0000
  H   H25       1.0  0.7972171500076279  0.14965294681047564  0.45968396088296964  1.0000
  H   H26       1.0  0.20278285027288429  0.6496529473204803  0.04031603964989409  1.0000
  H   H27       1.0  0.2027828505248423  0.8503470530788194  0.540316039575268  1.0000
  H   H28       1.0  0.7972171494649243  0.35034705256881465  0.9596839608067564  1.0000
  H   H29       1.0  0.6719050990319045  0.07646988935885131  0.3824892889538709  1.0000
  H   H30       1.0  0.3280949009568614  0.5764698887381416  0.1175107109076848  1.0000
  H   H31       1.0  0.3280949012088195  0.9235301105304438  0.6175107108330589  1.0000
  H   H32       1.0  0.6719050984892008  0.4235301111511534  0.8824892888776577  1.0000
  H   H33       1.0  0.10532247089724965  0.13772738211738297  0.3065864460208326  1.0000
  H   H34       1.0  0.8946775290915162  0.6377273826273877  0.19341355384072312  1.0000
  H   H35       1.0  0.8946775285488126  0.862272617771912  0.6934135537645097  1.0000
  H   H36       1.0  0.10532247114920776  0.3622726172619073  0.8065864459462067  1.0000
  H   H37       1.0  0.0866468747154128  0.33820211231778186  0.31771960495487533  1.0000
  H   H38       1.0  0.9133531252733531  0.8382021116970721  0.18228039490668035  1.0000
  H   H39       1.0  0.9133531255253112  0.6617978887022277  0.6822803948320544  1.0000
  H   H40       1.0  0.0866468744644554  0.1617978881922229  0.81771960554997  1.0000
  H   H41       1.0  0.0058597401686258654  0.42393419569367147  0.4327531112813689  1.0000
  H   H42       1.0  0.9941402598201402  0.9239341962036762  0.06724688858018683  1.0000
  H   H43       1.0  0.9941402600720981  0.5760658041956236  0.5672468885055607  1.0000
  H   H44       1.0  0.005859739625922172  0.07606580368561885  0.9327531112051557  1.0000
  H   H45       1.0  0.9435854682917973  0.2943524553727409  0.48684055950200866  1.0000
  H   H46       1.0  0.05641453169696874  0.7943524558827456  0.013159440359547006  1.0000
  H   H47       1.0  0.05641453115426501  0.7056475445165541  0.5131594402833337  1.0000
  H   H48       1.0  0.9435854685437551  0.2056475440065494  0.9868405594273827  1.0000
  H   H49       1.0  0.631633227195822  0.2723292649222251  0.47842185817087546  1.0000
  H   H50       1.0  0.36836677279294383  0.7723292654322298  0.021578141690680293  1.0000
  H   H51       1.0  0.3683667730449019  0.72767073496707  0.5215781416160542  1.0000
  H   H52       1.0  0.6316332274477803  0.22767073445706526  0.9784218580962495  1.0000
  H   H53       1.0  0.5803398756428727  0.32836676368477236  0.36437555730740634  1.0000
  H   H54       1.0  0.4196601243458932  0.8283667630640627  0.1356244425541494  1.0000
  H   H55       1.0  0.4196601245978513  0.6716332362045226  0.6356244424795233  1.0000
  H   H56       1.0  0.5803398758948308  0.17163323682523235  0.8643755572327804  1.0000
  H   H57       1.0  0.39967384436050274  0.20928549666220903  0.5455337446754119  1.0000
  H   H58       1.0  0.6003261553375177  0.7092854971722138  0.9544662550353046  1.0000
  H   H59       1.0  0.6003261550855595  0.790714503227086  0.45446625510993066  1.0000
  H   H60       1.0  0.39967384490320634  0.29071450384779574  0.04553374475162512  1.0000
  H   H61       1.0  0.5861906910828749  0.12110617640996688  0.6496689322062955  1.0000
  H   H62       1.0  0.4138093086151455  0.6211061757892572  0.850331067504421  1.0000
  H   H63       1.0  0.41380930915784914  0.8788938234793281  0.35033106758063426  1.0000
  H   H64       1.0  0.5861906908309168  0.37889382410003786  0.1496689322809215  1.0000
  H   H65       1.0  0.3125237662510837  0.08767582216731937  0.3963386861408993  1.0000
  H   H66       1.0  0.6874762337376823  0.5876758226773241  0.10366131372065648  1.0000
  H   H67       1.0  0.6874762342813867  0.9123241777219757  0.6036613143173385  1.0000
  H   H68       1.0  0.3125237657083799  0.41232417721197095  0.8963386860646859  1.0000
  C   C1        1.0  0.7596535904559966  0.13578506689540637  0.25574586833596374  1.0000
  C   C2        1.0  0.24034640953276945  0.6357850674054111  0.244254131525592  1.0000
  C   C3        1.0  0.24034640978472752  0.8642149329938887  0.744254131450966  1.0000
  C   C4        1.0  0.7596535899132928  0.3642149324838839  0.7557458682597505  1.0000
  C   C5        1.0  0.8408420667595209  0.355575591373661  0.3491600488792913  1.0000
  C   C6        1.0  0.15915793322924507  0.8555755918836657  0.15083995098226446  1.0000
  C   C7        1.0  0.15915793348120313  0.644424408515634  0.6508399509076385  1.0000
  C   C8        1.0  0.8408420662168172  0.1444244080056293  0.849160048803078  1.0000
  C   C9        1.0  0.7765986587984182  0.48777377546084183  0.3713708401595413  1.0000
  C   C10       1.0  0.2234013411903478  0.9877737759708466  0.1286291597020144  1.0000
  C   C11       1.0  0.22340134093939035  0.5122262244284532  0.6286291602971091  1.0000
  C   C12       1.0  0.7765986590503763  0.01222622391844847  0.8713708400849153  1.0000
  C   C13       1.0  0.015056425888228368  0.192923420170265  0.3953090388925083  1.0000
  C   C14       1.0  0.9849435741005376  0.6929234195495553  0.10469096096904745  1.0000
  C   C15       1.0  0.9849435743524956  0.80707657971903  0.6046909608944214  1.0000
  C   C16       1.0  0.015056425345524585  0.3070765803397397  0.895309038816295  1.0000
  C   C17       1.0  0.7298585640045944  0.45101887659296114  0.44553852855739284  1.0000
  C   C18       1.0  0.2701414362759179  0.9510188771029658  0.05446147197547089  1.0000
  C   C19       1.0  0.27014143573321425  0.5489811232963339  0.5544614718992577  1.0000
  C   C20       1.0  0.7298585642565524  0.04898112278632918  0.9455385284827668  1.0000
  C   C21       1.0  0.7232622486028565  0.1784883230206371  0.40026942971821416  1.0000
  C   C22       1.0  0.27673775138590945  0.6784883223999274  0.09973057014334157  1.0000
  C   C23       1.0  0.2767377516378675  0.8215116768686579  0.5997305700687156  1.0000
  C   C24       1.0  0.7232622488548147  0.3215116774893676  0.9002694296435882  1.0000
  C   C25       1.0  0.04784955216939098  0.22573143824258649  0.31334015111572444  1.0000
  C   C26       1.0  0.952150447819375  0.7257314376218768  0.1866598487458313  1.0000
  C   C27       1.0  0.952150448071333  0.7742685616467085  0.6866598486712053  1.0000
  C   C28       1.0  0.04784955242134904  0.27426856226741825  0.8133401510410984  1.0000
  C   C29       1.0  0.9540415934074855  0.3214188741034545  0.4227540086482718  1.0000
  C   C30       1.0  0.0459584065812804  0.8214188734827448  0.07724599121328396  1.0000
  C   C31       1.0  0.045958406038576635  0.6785811257858405  0.5772459911370706  1.0000
  C   C32       1.0  0.9540415939511899  0.17858112640655024  0.9227540092449538  1.0000
  C   C33       1.0  0.6578329099986715  0.30798905443775576  0.422316023694944  1.0000
  C   C34       1.0  0.34216708999009443  0.8079890549477605  0.07768397616661174  1.0000
  C   C35       1.0  0.34216709024205255  0.6920109454515393  0.5776839760919857  1.0000
  C   C36       1.0  0.6578329094559678  0.19201094494153456  0.9223160236187307  1.0000
  C   C37       1.0  0.6597709578485151  0.01877519519142727  0.22160877087579714  1.0000
  C   C38       1.0  0.3402290421402507  0.518775195701432  0.2783912289857586  1.0000
  C   C39       1.0  0.34022904239220886  0.9812248046978678  0.7783912289111327  1.0000
  C   C40       1.0  0.6597709573058115  0.48122480418786306  0.7216087707995839  1.0000
  C   C41       1.0  0.44362722716244296  0.11744805180907801  0.5255172035054  1.0000
  C   C42       1.0  0.5563727728273237  0.6174480523190827  0.9744827968766244  1.0000
  C   C43       1.0  0.5563727733700273  0.882551948080217  0.47448279695283774  1.0000
  C   C44       1.0  0.44362722691048484  0.38255194757021227  0.025517203580025988  1.0000
  C   C45       1.0  0.5486021148003236  0.06783328344680714  0.5841258241137027  1.0000
  C   C46       1.0  0.451397885189443  0.5678332839568119  0.9158741762683218  1.0000
  C   C47       1.0  0.45139788573214673  0.9321667164424879  0.415874176344535  1.0000
  C   C48       1.0  0.5486021145483655  0.4321667159324832  0.0841258241883287  1.0000
  C   C49       1.0  0.3948812042342705  0.04969065060690846  0.4413995976499272  1.0000
  C   C50       1.0  0.6051187960462417  0.5496906511169132  0.05860040288293657  1.0000
  C   C51       1.0  0.6051187962981999  0.9503093492823865  0.5586004028083106  1.0000
  C   C52       1.0  0.39488120448622854  0.4503093487723818  0.9413995975753011  1.0000
  N   N1        1.0  0.8226497021914038  0.13617305232603122  0.20559071224586672  1.0000
  N   N2        1.0  0.17735029779736233  0.636173052836036  0.294409287615689  1.0000
  N   N3        1.0  0.1773502972546586  0.8638269475632637  0.7944092875394757  1.0000
  N   N4        1.0  0.8226497024433617  0.3638269470532591  0.7055907121712407  1.0000
  N   N5        1.0  0.7669573207227889  0.21989764610085152  0.3279184477327419  1.0000
  N   N6        1.0  0.2330426792659771  0.7198976466108562  0.17208155212881382  1.0000
  N   N7        1.0  0.23304267872327336  0.7801023537884435  0.6720815520526006  1.0000
  N   N8        1.0  0.7669573209747469  0.28010235327843874  0.827918447658116  1.0000
  O   O1        1.0  0.9061128981622069  0.3769255092307181  0.17110163988741253  1.0000
  O   O2        1.0  0.09388710182655917  0.8769255086100084  0.3288983599741432  1.0000
  O   O3        1.0  0.09388710207851718  0.6230744906585769  0.8288983598995171  1.0000
  O   O4        1.0  0.9061128976195031  0.12307449127928663  0.6711016398111993  1.0000
  O   O5        1.0  0.978970391073079  0.1272723997215081  0.1484788731010797  1.0000
  O   O6        1.0  0.02102960891568685  0.6272724002315129  0.351521126760476  1.0000
  O   O7        1.0  0.021029609167644948  0.8727276001677869  0.85152112668585  1.0000
  O   O8        1.0  0.9789703905303755  0.3727275996577822  0.6484788730248664  1.0000
  S   S1        1.0  0.9348433332705838  0.2227050528331294  0.20290244995920131  1.0000
  S   S2        1.0  0.0651566667181821  0.7227050522124198  0.29709754990235443  1.0000
  S   S3        1.0  0.06515666617547838  0.77729494818688  0.7970975498261411  1.0000
  S   S4        1.0  0.9348433335225418  0.27729494767687535  0.7029024498845752  1.0000
  Cl  Cl1       1.0  0.14450532054963977  0.15593966922690117  0.4880409186094445  1.0000
  Cl  Cl2       1.0  0.8554946794391263  0.6559396686061915  0.011959081252111254  1.0000
  Cl  Cl3       1.0  0.8554946796910843  0.8440603306623938  0.5119590811774852  1.0000
  Cl  Cl4       1.0  0.14450532000693603  0.34406033128310354  0.9880409185332312  1.0000
  Cl  Cl5       1.0  0.6985844173998882  0.8527855303105705  0.2906133166834522  1.0000
  Cl  Cl6       1.0  0.30141558179421596  0.35278552980056566  0.2093866831765163  1.0000
  Cl  Cl7       1.0  0.301415582046174  0.14721446957872464  0.7093866831018902  1.0000
  Cl  Cl8       1.0  0.6985844176518463  0.6472144700887293  0.7906133166088263  1.0000
  Cl  Cl9       1.0  0.5306434609964488  0.09756873999424148  0.22519579178167973  1.0000
  Cl  Cl10      1.0  0.4693565389923172  0.5975687393735318  0.274804208079876  1.0000
  Cl  Cl11      1.0  0.46935653844961345  0.9024312598950536  0.7748042080036628  1.0000
  Cl  Cl12      1.0  0.5306434612484068  0.4024312605157632  0.7251957917070536  1.0000
  Cl  Cl13      1.0  0.6352829654467099  0.9634786964438838  0.10998964846853272  1.0000
  Cl  Cl14      1.0  0.36471703454205606  0.46347869706459355  0.390010351393023  1.0000
  Cl  Cl15      1.0  0.3647170342910987  0.03652130344541122  0.8900103519881177  1.0000
  Cl  Cl16      1.0  0.6352829656986679  0.5365213028247016  0.6099896483939067  1.0000
