data_image0
_chemical_formula_structural       H82C52N8O26F18P8S6
_chemical_formula_sum              "H82 C52 N8 O26 F18 P8 S6"
_cell_length_a       13.287546873187964
_cell_length_b       13.441449528266832
_cell_length_c       13.933732557457905
_cell_angle_alpha    61.8202742048609
_cell_angle_beta     84.32482981842338
_cell_angle_gamma    71.76947479169361

_space_group_name_H-M_alt    "P 1"
_space_group_IT_number       1

loop_
  _space_group_symop_operation_xyz
  'x, y, z'

loop_
  _atom_site_type_symbol
  _atom_site_label
  _atom_site_symmetry_multiplicity
  _atom_site_fract_x
  _atom_site_fract_y
  _atom_site_fract_z
  _atom_site_occupancy
  H   H1        1.0  0.5007285460256694  0.9705675788597591  0.7780108775607207  1.0000
  H   H2        1.0  0.49927145391206224  0.029432421015950873  0.22198912220963324  1.0000
  H   H3        1.0  0.6648055396800127  0.858046364320723  0.7290094295039014  1.0000
  H   H4        1.0  0.33519446025771893  0.14195363555498694  0.27099057026645273  1.0000
  H   H5        1.0  0.6601191788423704  0.6875924212466198  0.7005007198388478  1.0000
  H   H6        1.0  0.3398808211426682  0.31240757821602494  0.2994992807470823  1.0000
  H   H7        1.0  0.485497034502555  0.6475507002956058  0.7133433210538943  1.0000
  H   H8        1.0  0.5145029654351766  0.3524492995801041  0.28665667871645956  1.0000
  H   H9        1.0  0.26861151965556324  0.7401081806407809  0.8343333084781579  1.0000
  H   H10       1.0  0.7313884802821683  0.2598918192349291  0.16566669129219613  1.0000
  H   H11       1.0  0.3235942923654983  0.6695143027349371  0.7516879678121883  1.0000
  H   H12       1.0  0.6764057075722332  0.33048569714077286  0.24831203195816562  1.0000
  H   H13       1.0  0.2524761153754394  0.8234193884976764  0.6886613221163733  1.0000
  H   H14       1.0  0.747523884562292  0.17658061137803358  0.3113386776539807  1.0000
  H   H15       1.0  0.3840708150063926  0.14255128343502155  0.6003144278866746  1.0000
  H   H16       1.0  0.6159291849786459  0.8574487160276232  0.39968557269925564  1.0000
  H   H17       1.0  0.26817713421935163  0.2460992048981879  0.5118876304085219  1.0000
  H   H18       1.0  0.7318228657183798  0.7539007949775222  0.488112369361832  1.0000
  H   H19       1.0  0.31289710823009154  0.09344101215964098  0.5376614067677293  1.0000
  H   H20       1.0  0.6871028917549469  0.9065589873030037  0.4623385938182007  1.0000
  H   H21       1.0  0.03409498065797488  0.3263929753987787  0.590452834052416  1.0000
  H   H22       1.0  0.9659050193270636  0.673607024063866  0.40954716653351414  1.0000
  H   H23       1.0  0.9558165976202694  0.27888738938194524  0.5357610559538335  1.0000
  H   H24       1.0  0.0441834023174623  0.7211126104937645  0.4642389438165205  1.0000
  H   H25       1.0  0.08112247388302772  0.29049553185814125  0.4827339695723451  1.0000
  H   H26       1.0  0.9188775260547037  0.7095044680175687  0.5172660301980089  1.0000
  H   H27       1.0  0.05525185716981766  0.009452497493956645  0.8049108418528067  1.0000
  H   H28       1.0  0.9447481427679137  0.9905475023817533  0.19508915791754713  1.0000
  H   H29       1.0  0.9410050231074799  0.11152511244435424  0.7187221439039606  1.0000
  H   H30       1.0  0.05899497758321756  0.8884748874305548  0.2812778558651376  1.0000
  H   H31       1.0  0.011560000530294028  0.1608084073656406  0.7795775204102552  1.0000
  H   H32       1.0  0.9884399994074373  0.8391915925100691  0.22042247936009887  1.0000
  H   H33       1.0  0.15147371127769305  0.06710630326479923  0.5251572954564496  1.0000
  H   H34       1.0  0.8485262887073455  0.9328936961978451  0.4748427051294805  1.0000
  H   H35       1.0  0.018443154937762805  0.07160558189127356  0.5556205207657915  1.0000
  H   H36       1.0  0.9815568449999688  0.9283944179844362  0.4443794790045625  1.0000
  H   H37       1.0  0.12100903844481632  0.959891272437392  0.6526809964107249  1.0000
  H   H38       1.0  0.8789909614929152  0.04010872743831806  0.34731900335962923  1.0000
  H   H39       1.0  0.4371413920536816  0.18329193384059522  0.7239737377239003  1.0000
  H   H40       1.0  0.5628586079313569  0.8167080656220493  0.2760262628620298  1.0000
  H   H41       1.0  0.5283348925440974  0.3351103600029156  0.631040395376674  1.0000
  H   H42       1.0  0.4716651071944104  0.6648896402432809  0.36895960520872456  1.0000
  H   H43       1.0  0.42347105373594107  0.5505742899243333  0.5778628180060332  1.0000
  H   H44       1.0  0.5765289462490975  0.44942570953831124  0.42213718257989696  1.0000
  H   H45       1.0  0.23141714399145677  0.5977481132017485  0.6121551398589388  1.0000
  H   H46       1.0  0.7685828559462747  0.40225188667396156  0.38784485991141515  1.0000
  H   H47       1.0  0.07482281393853157  0.4394962247213736  0.6472391929853458  1.0000
  H   H48       1.0  0.925177186046507  0.560503774741271  0.3527608076005843  1.0000
  H   H49       1.0  0.08977856780698017  0.5548337445751336  0.669960689611761  1.0000
  H   H50       1.0  0.9102214321307514  0.44516625530057635  0.3300393101585929  1.0000
  H   H51       1.0  0.10224328201082097  0.41154758498037575  0.7828341211580515  1.0000
  H   H52       1.0  0.8977567179742175  0.588452414482269  0.21716587942787857  1.0000
  H   H53       1.0  0.4064892947784537  0.05013129575309665  0.06912946410807247  1.0000
  H   H54       1.0  0.5935107056657131  0.9498687049053645  0.9308705356604939  1.0000
  H   H55       1.0  0.314640687968614  0.0023712414716882332  0.16923029013639126  1.0000
  H   H56       1.0  0.6853593127693904  0.9976287579901554  0.8307697104482831  1.0000
  H   H57       1.0  0.27084992343270325  0.1358093006942411  0.04464045459572584  1.0000
  H   H58       1.0  0.7291500765050283  0.8641906991814687  0.9553595451746282  1.0000
  H   H59       1.0  0.131891067169616  0.06544024513898197  0.00207397519334304  1.0000
  H   H60       1.0  0.8681089327681155  0.934559754736728  0.997926024577011  1.0000
  H   H61       1.0  0.16889524776655854  0.9350546929404183  0.12847937468905973  1.0000
  H   H62       1.0  0.8311047521711731  0.06494530693529163  0.8715206250812941  1.0000
  H   H63       1.0  0.1683932623027234  0.9228554476969058  0.007799908539772901  1.0000
  H   H64       1.0  0.8316067373884776  0.07714455296235602  0.9922000912300495  1.0000
  H   H65       1.0  0.3618787641027007  0.7911015999114684  0.052495469845274284  1.0000
  H   H66       1.0  0.6381212358350308  0.2088983999642414  0.9475045299250798  1.0000
  H   H67       1.0  0.36155881926117983  0.8023093770352248  0.17390769928915897  1.0000
  H   H68       1.0  0.6384411807238587  0.19769062242741975  0.8260923012967712  1.0000
  H   H69       1.0  0.46126548695767344  0.8391405799109205  0.08006213060398762  1.0000
  H   H70       1.0  0.538734512980058  0.1608594199647897  0.9199378691663663  1.0000
  H   H71       1.0  0.009785370818543956  0.5712549531140693  0.863749908419605  1.0000
  H   H72       1.0  0.9902146298721536  0.4287450467608397  0.13625009134949337  1.0000
  H   H73       1.0  0.9104347779876187  0.6600569370277694  0.7532078425324334  1.0000
  H   H74       1.0  0.0895652219501128  0.3399430628479407  0.24679215723792058  1.0000
  H   H75       1.0  0.907657437213022  0.6955321877886839  0.8646531079863667  1.0000
  H   H76       1.0  0.09234256252548592  0.3044678124575129  0.13534689259903174  1.0000
  H   H77       1.0  0.15302294763950675  0.5357678174876318  0.13003349086287824  1.0000
  H   H78       1.0  0.846977052298225  0.4642321823880782  0.8699665089074756  1.0000
  H   H79       1.0  0.21313786689601324  0.649443271619662  0.04428597879881808  1.0000
  H   H80       1.0  0.7868621337946842  0.35055672825524714  0.95571402097028  1.0000
  H   H81       1.0  0.14578468716566292  0.5912348750400502  0.9853513742232358  1.0000
  H   H82       1.0  0.8542153125255381  0.40876512561921186  0.014648625546586571  1.0000
  C   C1        1.0  0.4072659800776572  0.4272322792036766  0.9514838031350977  1.0000
  C   C2        1.0  0.5927340198600742  0.5727677206720333  0.048516196635256206  1.0000
  C   C3        1.0  0.23256199346801124  0.9046490224489593  0.401132876416093  1.0000
  C   C4        1.0  0.7674380062231898  0.0953509782103027  0.5988671233537294  1.0000
  C   C5        1.0  0.3023955423086283  0.5362145476891697  0.32774606651153854  1.0000
  C   C6        1.0  0.6976044576764102  0.4637854517734749  0.6722539340743916  1.0000
  C   C7        1.0  0.40588228719401276  0.8705689460946382  0.7731201658573856  1.0000
  C   C8        1.0  0.5941177127437188  0.12943105378107156  0.22687983391296843  1.0000
  C   C9        1.0  0.49976182768335703  0.8985070037460791  0.7632552524561953  1.0000
  C   C10       1.0  0.5002381722543744  0.10149299612963086  0.2367447473141586  1.0000
  C   C11       1.0  0.5921399862915261  0.834637439357149  0.7362383425774998  1.0000
  C   C12       1.0  0.40786001364620555  0.16536256051856094  0.26376165719285416  1.0000
  C   C13       1.0  0.5894033807252601  0.7413648643207699  0.7197411055775176  1.0000
  C   C14       1.0  0.4105966192124714  0.25863513555494005  0.2802588941928364  1.0000
  C   C15       1.0  0.494298451033886  0.716514245194508  0.7283956776096765  1.0000
  C   C16       1.0  0.5057015489038456  0.2834857546812018  0.27160432216067737  1.0000
  C   C17       1.0  0.30599693083413476  0.7511440281567326  0.757785004939247  1.0000
  C   C18       1.0  0.6940030691035968  0.2488559717189773  0.24221499483110687  1.0000
  C   C19       1.0  0.30495555395037655  0.15358567486189303  0.5726941471148603  1.0000
  C   C20       1.0  0.6950444457881313  0.8464143253843036  0.4273058534705381  1.0000
  C   C21       1.0  0.08515407866862058  0.13570198662892927  0.641165855165161  1.0000
  C   C22       1.0  0.9148459210225802  0.8642980140303327  0.35883414460466134  1.0000
  C   C23       1.0  0.03780760399544866  0.2658930195533871  0.5574332603076426  1.0000
  C   C24       1.0  0.9621923959422829  0.7341069803223228  0.44256673946271147  1.0000
  C   C25       1.0  0.02078700704632228  0.10194985143020795  0.7431579771384047  1.0000
  C   C26       1.0  0.9792129928914092  0.898050148445502  0.25684202263194916  1.0000
  C   C27       1.0  0.09638981918801012  0.05322618597236782  0.5909096231816425  1.0000
  C   C28       1.0  0.9036101807497214  0.9467738139033421  0.4090903765887115  1.0000
  C   C29       1.0  0.28539190318885516  0.30686938594713753  0.7151092587268032  1.0000
  C   C30       1.0  0.7146080967488765  0.6931306139285723  0.28489074104355083  1.0000
  C   C31       1.0  0.39270121313022033  0.2757464699637256  0.697048829868504  1.0000
  C   C32       1.0  0.6072987868075113  0.7242535299119844  0.3029511699018499  1.0000
  C   C33       1.0  0.44459455914172336  0.3615515941389582  0.6461748543845044  1.0000
  C   C34       1.0  0.5554054408433151  0.6384484053236863  0.3538251462014257  1.0000
  C   C35       1.0  0.3878309742379876  0.47912781566605184  0.615901241489913  1.0000
  C   C36       1.0  0.6121690254532134  0.5208721849932102  0.38409875827990936  1.0000
  C   C37       1.0  0.2806060740326177  0.5075429600582442  0.6343722485067578  1.0000
  C   C38       1.0  0.7193939256585831  0.4924570406010177  0.3656277512630647  1.0000
  C   C39       1.0  0.11663289901554108  0.4596618041170112  0.6964200923468561  1.0000
  C   C40       1.0  0.8833671009221904  0.5403381957586988  0.3035799074234979  1.0000
  C   C41       1.0  0.3023328345940779  0.9721928412028493  0.03262114022197906  1.0000
  C   C42       1.0  0.6976671653436537  0.027807158672860564  0.9673788595483749  1.0000
  C   C43       1.0  0.3248365829721503  0.04505416924245697  0.08107176721451732  1.0000
  C   C44       1.0  0.6751634170128881  0.9549458302201874  0.9189282333714128  1.0000
  C   C45       1.0  0.18622731155915018  0.9747755267292664  0.0418371606094151  1.0000
  C   C46       1.0  0.8137726884258882  0.025224472733378377  0.9581628399765149  1.0000
  C   C47       1.0  0.37680728772690314  0.8443131670049727  0.08680558724764424  1.0000
  C   C48       1.0  0.6231927122581352  0.15568683245767195  0.9131944133382859  1.0000
  C   C49       1.0  0.9569397730052406  0.6608671822686615  0.8131931997629855  1.0000
  C   C50       1.0  0.04306022768545686  0.33913281760624764  0.18680680000611263  1.0000
  C   C51       1.0  0.14810646263162672  0.6136459272772986  0.05095691603534274  1.0000
  C   C52       1.0  0.8518935373534118  0.386354072185346  0.9490430845505874  1.0000
  N   N1        1.0  0.40515610322769696  0.7793562111952491  0.7542801732229317  1.0000
  N   N2        1.0  0.5948438974630004  0.22064378867966003  0.24571982654616636  1.0000
  N   N3        1.0  0.2309152490068181  0.42369999785107765  0.681301130218614  1.0000
  N   N4        1.0  0.7690847509309134  0.5763000020246323  0.31869886955174  1.0000
  N   N5        1.0  0.02817632604973206  0.7344917261742983  0.7544349695963095  1.0000
  N   N6        1.0  0.9718236739353064  0.2655082732883463  0.24556503098962057  1.0000
  N   N7        1.0  0.046641171527138245  0.7054771621993078  0.04204238069220335  1.0000
  N   N8        1.0  0.9533588284105933  0.29452283767640214  0.9579576190781506  1.0000
  O   O1        1.0  0.31894833248171184  0.304729335340906  0.9081823960864044  1.0000
  O   O2        1.0  0.6810516674560197  0.6952706645348037  0.09181760368394963  1.0000
  O   O3        1.0  0.2138953641237505  0.5080905149192109  0.8685615241748074  1.0000
  O   O4        1.0  0.7861046358139812  0.491909484956499  0.13143847559554664  1.0000
  O   O5        1.0  0.25227922608673076  0.35028152673305246  0.059166150336158546  1.0000
  O   O6        1.0  0.7477207736044701  0.6497184739262095  0.9408338494336638  1.0000
  O   O7        1.0  0.431695344481449  0.8891593323386293  0.365152150683433  1.0000
  O   O8        1.0  0.5683046554562828  0.11084066753708079  0.6348478490869209  1.0000
  O   O9        1.0  0.3552417452382623  0.9385147061503419  0.5114658191245597  1.0000
  O   O10       1.0  0.6447582546994692  0.061485293725367846  0.4885341806457943  1.0000
  O   O11       1.0  0.3887354986441659  0.7368437116992442  0.535967098576457  1.0000
  O   O12       1.0  0.6112645012935657  0.2631562881764657  0.46403290119389695  1.0000
  O   O13       1.0  0.09703692770711052  0.6119196630245847  0.2841108291721827  1.0000
  O   O14       1.0  0.9029630722306211  0.38808033685112514  0.7158891705981713  1.0000
  O   O15       1.0  0.1664572174716401  0.46654169741521523  0.47317485382215935  1.0000
  O   O16       1.0  0.8335427825133984  0.5334583020474293  0.5268251467637708  1.0000
  O   O17       1.0  0.19172354379523576  0.4042033496216529  0.33051809956657313  1.0000
  O   O18       1.0  0.8082764561424958  0.595796650254057  0.6694819002037807  1.0000
  O   O19       1.0  0.059066578265958895  0.7401775899922929  0.6655202531460587  1.0000
  O   O20       1.0  0.9409334214252422  0.2598224106669692  0.3344797466237636  1.0000
  O   O21       1.0  0.05500890244608475  0.7846038763658784  0.7982609625959263  1.0000
  O   O22       1.0  0.9449910982446128  0.21539612350903065  0.20173903717317185  1.0000
  O   O23       1.0  0.0493758648305096  0.8038287031183621  0.024080897734932435  1.0000
  O   O24       1.0  0.950624135107222  0.19617129675734776  0.9759191020354215  1.0000
  O   O25       1.0  0.9637698683494492  0.6779315759513674  0.05230782748776132  1.0000
  O   O26       1.0  0.03623013134175165  0.32206842470789465  0.9476921722820609  1.0000
  F   F1        1.0  0.44877699568816276  0.4680328310406292  0.8513756767719896  1.0000
  F   F2        1.0  0.5512230042495687  0.5319671688350808  0.1486243229983644  1.0000
  F   F3        1.0  0.38929982308465927  0.5117698612453737  0.9843482476341049  1.0000
  F   F4        1.0  0.6107001769003794  0.48823013821727074  0.0156517529518253  1.0000
  F   F5        1.0  0.48368554457032825  0.33013045998422774  0.02138698318600658  1.0000
  F   F6        1.0  0.5163144553674033  0.6698695398914821  0.9786130165843475  1.0000
  F   F7        1.0  0.23291407053804383  0.8478221776000492  0.3420638757784789  1.0000
  F   F8        1.0  0.7670859293996879  0.15217782227566068  0.657936123991875  1.0000
  F   F9        1.0  0.19410425917502175  0.023369895491551412  0.3337612683120363  1.0000
  F   F10       1.0  0.8058957407627096  0.9766301043841586  0.6662387314583176  1.0000
  F   F11       1.0  0.16371181518821104  0.874523083327681  0.4809504743347861  1.0000
  F   F12       1.0  0.8362881847495204  0.125476916548029  0.5190495254355678  1.0000
  F   F13       1.0  0.32590227573153635  0.5687375402116918  0.22183788933704668  1.0000
  F   F14       1.0  0.6740977242061952  0.4312624596640181  0.7781621104333074  1.0000
  F   F15       1.0  0.3005082644257795  0.6258217338680494  0.3486607924480097  1.0000
  F   F16       1.0  0.6994917355119521  0.3741782660076605  0.6513392073223443  1.0000
  F   F17       1.0  0.3844718055587475  0.43997063843068723  0.3908416279559746  1.0000
  F   F18       1.0  0.6155281943789841  0.5600293614450229  0.6091583718143794  1.0000
  P   P1        1.0  0.28485945466163437  0.9386073729158239  0.8245100655331354  1.0000
  P   P2        1.0  0.7151405460290631  0.061392626959085136  0.1754899342359627  1.0000
  P   P3        1.0  0.21962086592143157  0.11659784093990992  0.6848931196211274  1.0000
  P   P4        1.0  0.7803791340163  0.8834021589358  0.3151068801492265  1.0000
  P   P5        1.0  0.21129630971598967  0.1992654761592  0.7920973564794549  1.0000
  P   P6        1.0  0.7887036899752111  0.800734524500062  0.2079026432903675  1.0000
  P   P7        1.0  0.3456692637137596  0.03535888274941406  0.8881949047642489  1.0000
  P   P8        1.0  0.654330736223972  0.9646411171262957  0.11180509500610505  1.0000
  S   S1        1.0  0.2828492927440296  0.39298036543948345  0.9468601725293998  1.0000
  S   S2        1.0  0.7171507072410088  0.6070196340231611  0.05313982805653026  1.0000
  S   S3        1.0  0.3680352064933013  0.8626358409584628  0.460450194129162  1.0000
  S   S4        1.0  0.6319647941973964  0.1373641589164461  0.5395498056399362  1.0000
  S   S5        1.0  0.17375744106567625  0.5015247700883428  0.35728724222503466  1.0000
  S   S6        1.0  0.8262425588720553  0.4984752297873669  0.6427127575453193  1.0000
