data_image0
_chemical_formula_structural       H52C48N20O16
_chemical_formula_sum              "H52 C48 N20 O16"
_cell_length_a       6.961041462099292
_cell_length_b       23.515963117121757
_cell_length_c       8.032939014356813
_cell_angle_alpha    90.0
_cell_angle_beta     106.16293588859926
_cell_angle_gamma    90.0

_space_group_name_H-M_alt    "P 1"
_space_group_IT_number       1

loop_
  _space_group_symop_operation_xyz
  'x, y, z'

loop_
  _atom_site_type_symbol
  _atom_site_label
  _atom_site_symmetry_multiplicity
  _atom_site_fract_x
  _atom_site_fract_y
  _atom_site_fract_z
  _atom_site_occupancy
  H   H1        1.0  0.17810030087267473  0.46145000933851466  0.16331973909219116  1.0000
  H   H2        1.0  0.8218996989449352  0.9614500093997123  0.33668026160449316  1.0000
  H   H3        1.0  0.8218996984265866  0.5385499907838807  0.8366802607223002  1.0000
  H   H4        1.0  0.1781003018499083  0.03854999072268303  0.663319738585379  1.0000
  H   H5        1.0  0.2116471778834541  0.551101512426007  0.5902393081749657  1.0000
  H   H6        1.0  0.7883528208974586  0.05110151236480943  0.9097606907573327  1.0000
  H   H7        1.0  0.7883528214158072  0.4488984876963882  0.40976069163952566  1.0000
  H   H8        1.0  0.2116471784018027  0.9488984877575859  0.09023930905715864  1.0000
  H   H9        1.0  0.5584858517118804  0.25091921009621854  0.5092925457611137  1.0000
  H   H10       1.0  0.4415141485470617  0.7509192101574161  0.9907074547871197  1.0000
  H   H11       1.0  0.44151414908296305  0.7490807896009337  0.49070745442875835  1.0000
  H   H12       1.0  0.5584858507521996  0.2490807899649791  0.009292545027371478  1.0000
  H   H13       1.0  0.5926415036614358  0.31635635261663697  0.7627544804455516  1.0000
  H   H14       1.0  0.40735849510192423  0.8163563526778347  0.7372455197273012  1.0000
  H   H15       1.0  0.40735849563782556  0.6836436475057583  0.23724551936893967  1.0000
  H   H16       1.0  0.5926415041973371  0.18364364744456066  0.26275448008719016  1.0000
  H   H17       1.0  0.4501540978139119  0.4140063735221409  0.7104937431067657  1.0000
  H   H18       1.0  0.5498459024625829  0.9140063731580956  0.7895062562009133  1.0000
  H   H19       1.0  0.5498459014853494  0.5859936266002543  0.28950625670772556  1.0000
  H   H20       1.0  0.45015409833226055  0.0859936265390567  0.21049374398895881  1.0000
  H   H21       1.0  0.384887435516268  0.2856709787535264  0.21330203460986377  1.0000
  H   H22       1.0  0.6151125643188947  0.785670978814724  0.2866979648462661  1.0000
  H   H23       1.0  0.6151125637829933  0.7143290213688689  0.7866979652046275  1.0000
  H   H24       1.0  0.38488743498036665  0.21432902130767123  0.7133020349682253  1.0000
  H   H25       1.0  0.051763578944320446  0.22238665684044853  0.4143525718096198  1.0000
  H   H26       1.0  0.9482364223688717  0.7223866569016462  0.08564742926244534  1.0000
  H   H27       1.0  0.948236421850523  0.7776133432819468  0.5856474283802523  1.0000
  H   H28       1.0  0.05176357842597183  0.27761334322074915  0.9143525709274267  1.0000
  H   H29       1.0  0.9594613433298126  0.23107839100340874  0.19047980444379622  1.0000
  H   H30       1.0  0.04053865650535012  0.7310783910646064  0.3095201950123337  1.0000
  H   H31       1.0  0.040538655969448785  0.7689216086937435  0.8095201953706951  1.0000
  H   H32       1.0  0.9594613442894933  0.2689216090577889  0.6904798051775385  1.0000
  H   H33       1.0  0.059561764060512265  0.37340353683437594  0.7918297781305967  1.0000
  H   H34       1.0  0.9404382361984299  0.8734035368955736  0.7081702224176368  1.0000
  H   H35       1.0  0.940438235238749  0.6265964628627763  0.20817022168389462  1.0000
  H   H36       1.0  0.05956176459641361  0.1265964632268217  0.29182977777223523  1.0000
  H   H37       1.0  0.9314118389807183  0.43643401033094337  0.7026624902540275  1.0000
  H   H38       1.0  0.06858815980019442  0.936434010392141  0.7973375086782707  1.0000
  H   H39       1.0  0.06858816031854303  0.5635659897914519  0.2973375095604638  1.0000
  H   H40       1.0  0.9314118394990668  0.06356598973025428  0.20266249113622062  1.0000
  H   H41       1.0  0.6776162497940622  0.4019928693933516  0.959130533930018  1.0000
  H   H42       1.0  0.32238375046488  0.9019928694545492  0.5408694666182156  1.0000
  H   H43       1.0  0.32238374950519916  0.5980071307290437  0.040869465884473294  1.0000
  H   H44       1.0  0.6776162503299634  0.09800713066784604  0.45913053357165656  1.0000
  H   H45       1.0  0.7914660172593939  0.4616044218957174  0.08729842667167977  1.0000
  H   H46       1.0  0.20853398257576872  0.9616044219569151  0.41270157278445013  1.0000
  H   H47       1.0  0.20853398353544952  0.5383955782266779  0.9127015735181924  1.0000
  H   H48       1.0  0.7914660167234925  0.03839557816548029  0.5872984270300412  1.0000
  H   H49       1.0  0.5525523250627158  0.43925929882408726  0.09357526507260015  1.0000
  H   H50       1.0  0.4474476747548941  0.9392592988852849  0.4064247356240842  1.0000
  H   H51       1.0  0.4474476757321277  0.560740701298308  0.906424735117272  1.0000
  H   H52       1.0  0.5525523245443671  0.060740701237110395  0.5935752641904071  1.0000
  C   C1        1.0  0.4983886548043421  0.2940085785798012  0.49056009610409934  1.0000
  C   C2        1.0  0.5016113450308205  0.7940085786409988  0.009439903352030495  1.0000
  C   C3        1.0  0.5016113459905014  0.7059914215425941  0.5094399040857727  1.0000
  C   C4        1.0  0.49838865426844076  0.2059914214813964  0.9905600964624608  1.0000
  C   C5        1.0  0.5166954977420609  0.3302735261710432  0.631411563362798  1.0000
  C   C6        1.0  0.4833045010388518  0.8302735262322408  0.8685884355695002  1.0000
  C   C7        1.0  0.4833045015572004  0.669726473526109  0.3685884364516933  1.0000
  C   C8        1.0  0.5166954982604095  0.1697264738901544  0.13141156424499106  1.0000
  C   C9        1.0  0.4395403419680844  0.3850369646739023  0.6029524945356779  1.0000
  C   C10       1.0  0.5604596583084104  0.8850369647351  0.8970475047720012  1.0000
  C   C11       1.0  0.5604596588267591  0.614963035448493  0.39704750565419433  1.0000
  C   C12       1.0  0.43954034248643303  0.11496303538729533  0.10295249541787085  1.0000
  C   C13       1.0  0.3442749420102445  0.40600888436707977  0.436825029838963  1.0000
  C   C14       1.0  0.6557250578249182  0.9060088844282774  0.0631749696171669  1.0000
  C   C15       1.0  0.6557250587845991  0.5939911157553155  0.5631749703509091  1.0000
  C   C16       1.0  0.3442749414743431  0.09399111569411789  0.9368250301973244  1.0000
  C   C17       1.0  0.324609480339691  0.3688412486786386  0.2925001406428831  1.0000
  C   C18       1.0  0.6753905194779188  0.8688412487398363  0.20749986005380125  1.0000
  C   C19       1.0  0.6753905189595703  0.6311587514437567  0.7074998591716083  1.0000
  C   C20       1.0  0.32460948131692463  0.13115875138255903  0.7925001401360708  1.0000
  C   C21       1.0  0.40238979583194834  0.3134593069094  0.3247198452938751  1.0000
  C   C22       1.0  0.5976102040032143  0.8134593069705975  0.17528015416225476  1.0000
  C   C23       1.0  0.5976102049628952  0.6865406932129954  0.6752801548959971  1.0000
  C   C24       1.0  0.402389795296047  0.18654069315179764  0.8247198456522367  1.0000
  C   C25       1.0  0.23018264285238502  0.38109939598752424  0.10261845018385213  1.0000
  C   C26       1.0  0.7698173569827776  0.8810993956234789  0.3973815492722777  1.0000
  C   C27       1.0  0.7698173564468762  0.618900604134871  0.8973815496306392  1.0000
  C   C28       1.0  0.23018264381206588  0.11890060407367338  0.6026184509175945  1.0000
  C   C29       1.0  0.27082692738372943  0.46666131024886404  0.4384603979454792  1.0000
  C   C30       1.0  0.7291730724514333  0.9666613103100617  0.06153960151065062  1.0000
  C   C31       1.0  0.7291730719155318  0.5333386898735313  0.561539601869012  1.0000
  C   C32       1.0  0.2708269283434103  0.03333868981233361  0.9384603986792215  1.0000
  C   C33       1.0  0.9258455885660071  0.372467877091655  0.5296727585931773  1.0000
  C   C34       1.0  0.07415441169293499  0.8724678771528527  0.9703272419550562  1.0000
  C   C35       1.0  0.07415441073325417  0.6275321230307402  0.470327241221314  1.0000
  C   C36       1.0  0.9258455891019085  0.12753212296954258  0.029672758234815882  1.0000
  C   C37       1.0  0.9262460654944038  0.2998845297076287  0.3400500199775833  1.0000
  C   C38       1.0  0.0737539343232061  0.7998845297688263  0.15994998071910108  1.0000
  C   C39       1.0  0.07375393530043964  0.7001154704147666  0.6599499802122888  1.0000
  C   C40       1.0  0.9262460649760552  0.20011547035356894  0.8400500190953902  1.0000
  C   C41       1.0  0.7919870581399961  0.38459827713435224  0.22744819166310765  1.0000
  C   C42       1.0  0.20801294169516657  0.8845982771955498  0.2725518077930222  1.0000
  C   C43       1.0  0.20801294115926522  0.6154017229880431  0.7725518081513837  1.0000
  C   C44       1.0  0.7919870590996769  0.11540172292684538  0.7274481923968499  1.0000
  C   C45       1.0  0.6972690511811096  0.42390077839261764  0.08247486946466925  1.0000
  C   C46       1.0  0.3027309501496352  0.9239007784538152  0.4175251303668414  1.0000
  C   C47       1.0  0.30273094961373387  0.5760992217297777  0.9175251307252029  1.0000
  C   C48       1.0  0.6972690506452083  0.07609922166857999  0.5824748698230308  1.0000
  N   N1        1.0  0.9708339862258802  0.24644203773990783  0.3130890184444887  1.0000
  N   N2        1.0  0.029166013609282383  0.7464420373758623  0.1869109810116411  1.0000
  N   N3        1.0  0.029166014568963197  0.7535579623824875  0.6869109817453835  1.0000
  N   N4        1.0  0.9708339856899788  0.25355796232128985  0.8130890188028502  1.0000
  N   N5        1.0  0.9704526986609061  0.3950457760854422  0.686496445448674  1.0000
  N   N6        1.0  0.029547301598035928  0.8950457761466398  0.8135035550995595  1.0000
  N   N7        1.0  0.02954730063835511  0.60495422361171  0.3135035543658172  1.0000
  N   N8        1.0  0.9704526991968074  0.10495422355051234  0.1864964450903126  1.0000
  N   N9        1.0  0.9703312811601584  0.3183053703868949  0.5055187151716115  1.0000
  N   N10       1.0  0.029668719098783592  0.8183053704480925  0.9944812853766221  1.0000
  N   N11       1.0  0.029668719634684936  0.6816946297355004  0.4944812850182606  1.0000
  N   N12       1.0  0.9703312802004778  0.18169462967430275  0.005518714437869224  1.0000
  N   N13       1.0  0.8326702217822108  0.4060772719552041  0.39055344501509015  1.0000
  N   N14       1.0  0.16732977805295182  0.9060772720164016  0.10944655444103972  1.0000
  N   N15       1.0  0.1673297790126326  0.5939227281671913  0.6094465551747821  1.0000
  N   N16       1.0  0.8326702212463095  0.09392272810599357  0.8905534453734516  1.0000
  N   N17       1.0  0.8369245541164262  0.3320918892883449  0.1958016183191014  1.0000
  N   N18       1.0  0.16307544571873636  0.8320918889242994  0.30419838113702846  1.0000
  N   N19       1.0  0.1630754466784172  0.6679081108340503  0.8041983818707708  1.0000
  N   N20       1.0  0.836924553580525  0.16790811077285275  0.6958016186774629  1.0000
  O   O1        1.0  0.21665578322691503  0.3424433351886306  0.9930639027482284  1.0000
  O   O2        1.0  0.7833442170320271  0.8424433352498282  0.5069360978000051  1.0000
  O   O3        1.0  0.7833442175679285  0.6575566649337646  0.006936097441643689  1.0000
  O   O4        1.0  0.2166557822672342  0.15755666487256706  0.4930639020144862  1.0000
  O   O5        1.0  0.16698034355010763  0.43222981467424854  0.051606245803379906  1.0000
  O   O6        1.0  0.8330196562850551  0.9322298147354462  0.44839375365274997  1.0000
  O   O7        1.0  0.8330196557491537  0.5677701854481468  0.9483937540111115  1.0000
  O   O8        1.0  0.16698034450978846  0.06777018538694915  0.5516062465371223  1.0000
  O   O9        1.0  0.2934265990310622  0.48984635171557017  0.5838071769023832  1.0000
  O   O10       1.0  0.7065734012454326  0.9898463513515248  0.9161928224052961  1.0000
  O   O11       1.0  0.7065734017637811  0.5101536484068251  0.416192823287489  1.0000
  O   O12       1.0  0.2934265980538287  0.010153648345627472  0.08380717740919534  1.0000
  O   O13       1.0  0.1866107141273222  0.4928935728582087  0.295500087549514  1.0000
  O   O14       1.0  0.8133892857078405  0.9928935724941632  0.20449991190661582  1.0000
  O   O15       1.0  0.8133892851719391  0.5071064272641866  0.7044999122649774  1.0000
  O   O16       1.0  0.186610715087003  0.007106427202988998  0.7955000882832564  1.0000
