data_image0
_chemical_formula_structural       H104C116I8
_chemical_formula_sum              "H104 C116 I8"
_cell_length_a       18.64536006496124
_cell_length_b       18.64536006496124
_cell_length_c       7.17253717583973
_cell_angle_alpha    90.0
_cell_angle_beta     90.0
_cell_angle_gamma    90.0

_space_group_name_H-M_alt    "P 1"
_space_group_IT_number       1

loop_
  _space_group_symop_operation_xyz
  'x, y, z'

loop_
  _atom_site_type_symbol
  _atom_site_label
  _atom_site_symmetry_multiplicity
  _atom_site_fract_x
  _atom_site_fract_y
  _atom_site_fract_z
  _atom_site_occupancy
  H   H1        1.0  0.5297432018253991  0.46315420458027784  0.1631352074327883  1.0000
  H   H2        1.0  0.47025679790851643  0.5368457956899643  0.1631352074327883  1.0000
  H   H3        1.0  0.46315420458027784  0.47025679790851643  0.8368647931472393  1.0000
  H   H4        1.0  0.5368457956899643  0.5297432018253991  0.8368647931472393  1.0000
  H   H5        1.0  0.9702567983118007  0.9631542044472358  0.33686479285722554  1.0000
  H   H6        1.0  0.02974320195844139  0.03684579528667998  0.33686479285722554  1.0000
  H   H7        1.0  0.03684579528667998  0.9702567983118007  0.6631352077228021  1.0000
  H   H8        1.0  0.9631542044472358  0.02974320195844139  0.6631352077228021  1.0000
  H   H9        1.0  0.4487489751256457  0.3768589598440993  0.5903394665227754  1.0000
  H   H10       1.0  0.5512510246082699  0.6231410404261428  0.5903394665227754  1.0000
  H   H11       1.0  0.3768589598440993  0.5512510246082699  0.40966053266304553  1.0000
  H   H12       1.0  0.6231410404261428  0.4487489751256457  0.40966053266304553  1.0000
  H   H13       1.0  0.051251024741312046  0.8768589597110571  0.9096605329530594  1.0000
  H   H14       1.0  0.9487489749926037  0.12314104002285853  0.9096605329530594  1.0000
  H   H15       1.0  0.12314104002285853  0.051251024741312046  0.09033946623276153  1.0000
  H   H16       1.0  0.8768589597110571  0.9487489749926037  0.09033946623276153  1.0000
  H   H17       1.0  0.5155320892978412  0.36552342224849216  0.41746408789431516  1.0000
  H   H18       1.0  0.48446791097240083  0.6344765774854234  0.41746408789431516  1.0000
  H   H19       1.0  0.36552342224849216  0.48446791097240083  0.5825359126857126  1.0000
  H   H20       1.0  0.6344765774854234  0.5155320892978412  0.5825359126857126  1.0000
  H   H21       1.0  0.9844679108393587  0.8655234221154499  0.08253591239569869  1.0000
  H   H22       1.0  0.015532089430883406  0.13447657761846565  0.08253591239569869  1.0000
  H   H23       1.0  0.13447657761846565  0.9844679108393587  0.9174640867901221  1.0000
  H   H24       1.0  0.8655234221154499  0.015532089430883406  0.9174640867901221  1.0000
  H   H25       1.0  0.2984725867782038  0.472918212320848  0.31721897624512785  1.0000
  H   H26       1.0  0.7015274129557119  0.5270817874130675  0.31721897624512785  1.0000
  H   H27       1.0  0.472918212320848  0.7015274129557119  0.6827810243348997  1.0000
  H   H28       1.0  0.5270817874130675  0.2984725867782038  0.6827810243348997  1.0000
  H   H29       1.0  0.20152741308875396  0.9729182127241323  0.18278102404488594  1.0000
  H   H30       1.0  0.7984725866451616  0.027081787546109782  0.18278102404488594  1.0000
  H   H31       1.0  0.027081787546109782  0.20152741308875396  0.8172189765351418  1.0000
  H   H32       1.0  0.9729182127241323  0.7984725866451616  0.8172189765351418  1.0000
  H   H33       1.0  0.22505813539561287  0.4165160910243942  0.07584160899609607  1.0000
  H   H34       1.0  0.7749418648746292  0.5834839087095214  0.07584160899609607  1.0000
  H   H35       1.0  0.4165160910243942  0.7749418648746292  0.9241583901897249  1.0000
  H   H36       1.0  0.5834839087095214  0.22505813539561287  0.9241583901897249  1.0000
  H   H37       1.0  0.27494186447134494  0.916516090891352  0.42415839129391775  1.0000
  H   H38       1.0  0.7250581352625707  0.08348390884256361  0.42415839129391775  1.0000
  H   H39       1.0  0.08348390884256361  0.27494186447134494  0.57584160928611  1.0000
  H   H40       1.0  0.916516090891352  0.7250581352625707  0.57584160928611  1.0000
  H   H41       1.0  0.4086460274005891  0.2928611049062812  0.8941707533567629  1.0000
  H   H42       1.0  0.5913539723333265  0.7071388948276344  0.8941707533567629  1.0000
  H   H43       1.0  0.2928611049062812  0.5913539723333265  0.10582924582905796  1.0000
  H   H44       1.0  0.7071388948276344  0.4086460274005891  0.10582924582905796  1.0000
  H   H45       1.0  0.09135397246636871  0.792861104773239  0.6058292461190717  1.0000
  H   H46       1.0  0.908646027267547  0.20713889496067658  0.6058292461190717  1.0000
  H   H47       1.0  0.20713889496067658  0.09135397246636871  0.3941707530667491  1.0000
  H   H48       1.0  0.792861104773239  0.908646027267547  0.3941707530667491  1.0000
  H   H49       1.0  0.4829159457703784  0.3528922856450978  0.12926417211514182  1.0000
  H   H50       1.0  0.5170840539635373  0.6471077146251444  0.12926417211514182  1.0000
  H   H51       1.0  0.3528922856450978  0.5170840539635373  0.8707358270706791  1.0000
  H   H52       1.0  0.6471077146251444  0.4829159457703784  0.8707358270706791  1.0000
  H   H53       1.0  0.01708405409657945  0.8528922855120556  0.37073582817487205  1.0000
  H   H54       1.0  0.9829159456373362  0.14710771475818651  0.37073582817487205  1.0000
  H   H55       1.0  0.14710771475818651  0.01708405409657945  0.6292641724051556  1.0000
  H   H56       1.0  0.8528922855120556  0.9829159456373362  0.6292641724051556  1.0000
  H   H57       1.0  0.4350451357194996  0.08299441708867943  0.8292649245563013  1.0000
  H   H58       1.0  0.5649548645507425  0.9170055831815627  0.8292649245563013  1.0000
  H   H59       1.0  0.08299441708867943  0.5649548645507425  0.17073507602372637  1.0000
  H   H60       1.0  0.9170055831815627  0.4350451357194996  0.17073507602372637  1.0000
  H   H61       1.0  0.06495486468378468  0.5829944169556373  0.6707350763137402  1.0000
  H   H62       1.0  0.9350451355864574  0.41700558277827837  0.6707350763137402  1.0000
  H   H63       1.0  0.41700558277827837  0.06495486468378468  0.32926492426628745  1.0000
  H   H64       1.0  0.5829944169556373  0.9350451355864574  0.32926492426628745  1.0000
  H   H65       1.0  0.5555687594076791  0.06635205625902038  0.685817121529816  1.0000
  H   H66       1.0  0.44443124032623643  0.9336479440112216  0.685817121529816  1.0000
  H   H67       1.0  0.06635205625902038  0.44443124032623643  0.3141828790502115  1.0000
  H   H68       1.0  0.9336479440112216  0.5555687594076791  0.3141828790502115  1.0000
  H   H69       1.0  0.9444312401931942  0.5663520561259782  0.8141828793402254  1.0000
  H   H70       1.0  0.055568759540721366  0.4336479436079374  0.8141828793402254  1.0000
  H   H71       1.0  0.4336479436079374  0.9444312401931942  0.18581712123980224  1.0000
  H   H72       1.0  0.5663520561259782  0.055568759540721366  0.18581712123980224  1.0000
  H   H73       1.0  0.5929679921160044  0.14350897921399633  0.41887396974673174  1.0000
  H   H74       1.0  0.40703200761791114  0.8564910210562457  0.41887396974673174  1.0000
  H   H75       1.0  0.14350897921399633  0.40703200761791114  0.581126030833296  1.0000
  H   H76       1.0  0.8564910210562457  0.5929679921160044  0.581126030833296  1.0000
  H   H77       1.0  0.9070320080211953  0.6435089790809542  0.08112603054328206  1.0000
  H   H78       1.0  0.09296799224904662  0.35649102118928794  0.08112603054328206  1.0000
  H   H79       1.0  0.35649102118928794  0.9070320080211953  0.9188739700367456  1.0000
  H   H80       1.0  0.6435089790809542  0.09296799224904662  0.9188739700367456  1.0000
  H   H81       1.0  0.5092801537174144  0.23389946693470123  0.2900743919471447  1.0000
  H   H82       1.0  0.4907198465528277  0.7661005327992143  0.2900743919471447  1.0000
  H   H83       1.0  0.23389946693470123  0.4907198465528277  0.7099256072386761  1.0000
  H   H84       1.0  0.7661005327992143  0.5092801537174144  0.7099256072386761  1.0000
  H   H85       1.0  0.9907198464197855  0.7338994673379855  0.20992560834286916  1.0000
  H   H86       1.0  0.009280153850456612  0.26610053293225655  0.20992560834286916  1.0000
  H   H87       1.0  0.26610053293225655  0.9907198464197855  0.7900743922371585  1.0000
  H   H88       1.0  0.7338994673379855  0.009280153850456612  0.7900743922371585  1.0000
  H   H89       1.0  0.3881199915039047  0.24992878945562416  0.4317558353592558  1.0000
  H   H90       1.0  0.6118800087663374  0.7500712102782915  0.4317558353592558  1.0000
  H   H91       1.0  0.24992878945562416  0.6118800087663374  0.5682441638265651  1.0000
  H   H92       1.0  0.7500712102782915  0.3881199915039047  0.5682441638265651  1.0000
  H   H93       1.0  0.1118800083630531  0.7499287898589083  0.06824416353655126  1.0000
  H   H94       1.0  0.8881199913708626  0.2500712104113336  0.06824416353655126  1.0000
  H   H95       1.0  0.2500712104113336  0.1118800083630531  0.9317558356492696  1.0000
  H   H96       1.0  0.7499287898589083  0.8881199913708626  0.9317558356492696  1.0000
  H   H97       1.0  0.35154960253719436  0.1742757157104413  0.7015792231722888  1.0000
  H   H98       1.0  0.6484503977330477  0.8257242840234743  0.7015792231722888  1.0000
  H   H99       1.0  0.1742757157104413  0.6484503977330477  0.2984207760135321  1.0000
  H   H100      1.0  0.8257242840234743  0.35154960253719436  0.2984207760135321  1.0000
  H   H101      1.0  0.14845039732976345  0.6742757161137255  0.7984207763035459  1.0000
  H   H102      1.0  0.8515496024041521  0.32572428415651655  0.7984207763035459  1.0000
  H   H103      1.0  0.32572428415651655  0.14845039732976345  0.20157922427648176  1.0000
  H   H104      1.0  0.6742757161137255  0.8515496024041521  0.20157922427648176  1.0000
  C   C1        1.0  0.49999999986695787  0.49999999986695787  0.25448510690867227  1.0000
  C   C2        1.0  0.49999999986695787  0.49999999986695787  0.7455148922771486  1.0000
  C   C3        1.0  0.0  0.0  0.24551489198713478  1.0000
  C   C4        1.0  0.0  0.0  0.7544851071986861  1.0000
  C   C5        1.0  0.4460807606301  0.45820316959471713  0.37516886480061495  1.0000
  C   C6        1.0  0.5539192396401421  0.541796830675525  0.37516886480061495  1.0000
  C   C7        1.0  0.45820316959471713  0.5539192396401421  0.624831134385206  1.0000
  C   C8        1.0  0.541796830675525  0.4460807606301  0.624831134385206  1.0000
  C   C9        1.0  0.05391923977318429  0.9582031694616748  0.1248311354893989  1.0000
  C   C10       1.0  0.9460807604970577  0.04179683080856717  0.1248311354893989  1.0000
  C   C11       1.0  0.04179683080856717  0.05391923977318429  0.8751688650906287  1.0000
  C   C12       1.0  0.9582031694616748  0.9460807604970577  0.8751688650906287  1.0000
  C   C13       1.0  0.48745217460722146  0.4058602742792209  0.5023345270536258  1.0000
  C   C14       1.0  0.5125478251266942  0.5941397254546947  0.5023345270536258  1.0000
  C   C15       1.0  0.4058602742792209  0.5125478251266942  0.49766547352640184  1.0000
  C   C16       1.0  0.5941397254546947  0.48745217460722146  0.49766547352640184  1.0000
  C   C17       1.0  0.012547825259736349  0.9058602741461786  0.9976654738164157  1.0000
  C   C18       1.0  0.9874521744741793  0.09413972558773694  0.9976654738164157  1.0000
  C   C19       1.0  0.09413972558773694  0.012547825259736349  0.0023345267636120165  1.0000
  C   C20       1.0  0.9058602741461786  0.9874521744741793  0.0023345267636120165  1.0000
  C   C21       1.0  0.3968818802221068  0.41815254534298574  0.24234464282110826  1.0000
  C   C22       1.0  0.6031181200481353  0.5818474549272563  0.24234464282110826  1.0000
  C   C23       1.0  0.41815254534298574  0.6031181200481353  0.7576553563647126  1.0000
  C   C24       1.0  0.5818474549272563  0.3968818802221068  0.7576553563647126  1.0000
  C   C25       1.0  0.10311812018117747  0.9181525452099435  0.25765535607469875  1.0000
  C   C26       1.0  0.8968818800890647  0.08184745452397207  0.25765535607469875  1.0000
  C   C27       1.0  0.08184745452397207  0.10311812018117747  0.742344643111122  1.0000
  C   C28       1.0  0.9181525452099435  0.8968818800890647  0.742344643111122  1.0000
  C   C29       1.0  0.32388854808702  0.4342836787162272  0.22457759792808818  1.0000
  C   C30       1.0  0.6761114516468956  0.5657163210176884  0.22457759792808818  1.0000
  C   C31       1.0  0.4342836787162272  0.6761114516468956  0.7754224012577328  1.0000
  C   C32       1.0  0.5657163210176884  0.32388854808702  0.7754224012577328  1.0000
  C   C33       1.0  0.17611145177993784  0.9342836791195115  0.27542240096771886  1.0000
  C   C34       1.0  0.8238885484903042  0.0657163211507306  0.27542240096771886  1.0000
  C   C35       1.0  0.0657163211507306  0.17611145177993784  0.724577598218102  1.0000
  C   C36       1.0  0.9342836791195115  0.8238885484903042  0.724577598218102  1.0000
  C   C37       1.0  0.2815389508012117  0.4020379426239621  0.08726286593651886  1.0000
  C   C38       1.0  0.7184610494690303  0.59796205764628  0.08726286593651886  1.0000
  C   C39       1.0  0.4020379426239621  0.7184610494690303  0.9127371332493021  1.0000
  C   C40       1.0  0.59796205764628  0.2815389508012117  0.9127371332493021  1.0000
  C   C41       1.0  0.21846104960207255  0.9020379424909197  0.41273713435349496  1.0000
  C   C42       1.0  0.7815389506681696  0.09796205724299575  0.41273713435349496  1.0000
  C   C43       1.0  0.09796205724299575  0.21846104960207255  0.5872628662265328  1.0000
  C   C44       1.0  0.9020379424909197  0.7815389506681696  0.5872628662265328  1.0000
  C   C45       1.0  0.31241866339426516  0.35168256162145783  0.9677286739454743  1.0000
  C   C46       1.0  0.6875813363396505  0.6483174386487842  0.9677286739454743  1.0000
  C   C47       1.0  0.35168256162145783  0.6875813363396505  0.032271326634553246  1.0000
  C   C48       1.0  0.6483174386487842  0.31241866339426516  0.032271326634553246  1.0000
  C   C49       1.0  0.18758133647269262  0.8516825614884156  0.5322713255303603  1.0000
  C   C50       1.0  0.812418663261223  0.14831743824549998  0.5322713255303603  1.0000
  C   C51       1.0  0.14831743824549998  0.18758133647269262  0.4677286736554606  1.0000
  C   C52       1.0  0.8516825614884156  0.812418663261223  0.4677286736554606  1.0000
  C   C53       1.0  0.3846474074521934  0.33280364435873927  0.985838966972264  1.0000
  C   C54       1.0  0.6153525928180488  0.6671963553751763  0.985838966972264  1.0000
  C   C55       1.0  0.33280364435873927  0.6153525928180488  0.014161033607763567  1.0000
  C   C56       1.0  0.6671963553751763  0.3846474074521934  0.014161033607763567  1.0000
  C   C57       1.0  0.11535259241476446  0.8328036447620235  0.5141610338977773  1.0000
  C   C58       1.0  0.8846474073191511  0.16719635550821854  0.5141610338977773  1.0000
  C   C59       1.0  0.16719635550821854  0.11535259241476446  0.48583896668225024  1.0000
  C   C60       1.0  0.8328036447620235  0.8846474073191511  0.48583896668225024  1.0000
  C   C61       1.0  0.4260626119486266  0.3664642895709187  0.12157403281746122  1.0000
  C   C62       1.0  0.5739373883216154  0.6335357101629968  0.12157403281746122  1.0000
  C   C63       1.0  0.3664642895709187  0.5739373883216154  0.8784259677625664  1.0000
  C   C64       1.0  0.6335357101629968  0.4260626119486266  0.8784259677625664  1.0000
  C   C65       1.0  0.07393738845465765  0.8664642894378766  0.3784259674725526  1.0000
  C   C66       1.0  0.9260626118155844  0.13353571029603906  0.3784259674725526  1.0000
  C   C67       1.0  0.13353571029603906  0.07393738845465765  0.6215740317132682  1.0000
  C   C68       1.0  0.8664642894378766  0.9260626118155844  0.6215740317132682  1.0000
  C   C69       1.0  0.4514333330477036  0.1159361746015439  0.711160458977031  1.0000
  C   C70       1.0  0.5485666672225384  0.8840638251323717  0.711160458977031  1.0000
  C   C71       1.0  0.1159361746015439  0.5485666672225384  0.28883954160299663  1.0000
  C   C72       1.0  0.8840638251323717  0.4514333330477036  0.28883954160299663  1.0000
  C   C73       1.0  0.04856666681925419  0.6159361750048281  0.7888395418930105  1.0000
  C   C74       1.0  0.9514333329146615  0.3840638252654139  0.7888395418930105  1.0000
  C   C75       1.0  0.3840638252654139  0.04856666681925419  0.21116045868701716  1.0000
  C   C76       1.0  0.6159361750048281  0.9514333329146615  0.21116045868701716  1.0000
  C   C77       1.0  0.519100994364204  0.10683992548599469  0.6308829412892138  1.0000
  C   C78       1.0  0.4808990053697116  0.8931600747842474  0.6308829412892138  1.0000
  C   C79       1.0  0.10683992548599469  0.4808990053697116  0.36911705929081384  1.0000
  C   C80       1.0  0.8931600747842474  0.519100994364204  0.36911705929081384  1.0000
  C   C81       1.0  0.9808990057729958  0.6068399253529525  0.8691170595808276  1.0000
  C   C82       1.0  0.019100994497246268  0.3931600743809631  0.8691170595808276  1.0000
  C   C83       1.0  0.3931600743809631  0.9808990057729958  0.1308829409992  1.0000
  C   C84       1.0  0.6068399253529525  0.019100994497246268  0.1308829409992  1.0000
  C   C85       1.0  0.5398702891727142  0.1495827331991938  0.4802192788351418  1.0000
  C   C86       1.0  0.46012971056120144  0.8504172665347218  0.4802192788351418  1.0000
  C   C87       1.0  0.1495827331991938  0.46012971056120144  0.519780720350679  1.0000
  C   C88       1.0  0.8504172665347218  0.5398702891727142  0.519780720350679  1.0000
  C   C89       1.0  0.9601297109644857  0.6495827336024781  0.019780720060665218  1.0000
  C   C90       1.0  0.03987028930575632  0.350417266667764  0.019780720060665218  1.0000
  C   C91       1.0  0.350417266667764  0.9601297109644857  0.9802192791251557  1.0000
  C   C92       1.0  0.6495827336024781  0.03987028930575632  0.9802192791251557  1.0000
  C   C93       1.0  0.49282747064070187  0.20089704231773906  0.4081766184303174  1.0000
  C   C94       1.0  0.5071725290932138  0.7991029579525031  0.4081766184303174  1.0000
  C   C95       1.0  0.20089704231773906  0.5071725290932138  0.5918233807555034  1.0000
  C   C96       1.0  0.7991029579525031  0.49282747064070187  0.5918233807555034  1.0000
  C   C97       1.0  0.007172529226255949  0.700897042184697  0.09182338046548963  1.0000
  C   C98       1.0  0.9928274710439862  0.29910295754921873  0.09182338046548963  1.0000
  C   C99       1.0  0.29910295754921873  0.007172529226255949  0.9081766187203313  1.0000
  C   C100      1.0  0.700897042184697  0.9928274710439862  0.9081766187203313  1.0000
  C   C101      1.0  0.4249723803881109  0.209900825533247  0.4877744589159834  1.0000
  C   C102      1.0  0.5750276193458047  0.7900991747369951  0.4877744589159834  1.0000
  C   C103      1.0  0.209900825533247  0.5750276193458047  0.5122255402698375  1.0000
  C   C104      1.0  0.7900991747369951  0.4249723803881109  0.5122255402698375  1.0000
  C   C105      1.0  0.07502761947884691  0.7099008254002047  0.012225539979823645  1.0000
  C   C106      1.0  0.9249723807913951  0.2900991748700373  0.012225539979823645  1.0000
  C   C107      1.0  0.2900991748700373  0.07502761947884691  0.9877744592059973  1.0000
  C   C108      1.0  0.7099008254002047  0.9249723807913951  0.9877744592059973  1.0000
  C   C109      1.0  0.40443658013185574  0.1674334160951206  0.6393819226824838  1.0000
  C   C110      1.0  0.5955634196020598  0.832566583638795  0.6393819226824838  1.0000
  C   C111      1.0  0.1674334160951206  0.5955634196020598  0.3606180778975437  1.0000
  C   C112      1.0  0.832566583638795  0.40443658013185574  0.3606180778975437  1.0000
  C   C113      1.0  0.09556341973510202  0.6674334159620784  0.8606180781875575  1.0000
  C   C114      1.0  0.9044365799988136  0.3325665837718372  0.8606180781875575  1.0000
  C   C115      1.0  0.3325665837718372  0.09556341973510202  0.1393819223924701  1.0000
  C   C116      1.0  0.6674334159620784  0.9044365799988136  0.1393819223924701  1.0000
  I   I1        1.0  0.25044087074376953  0.303166374385152  0.7572788285149725  1.0000
  I   I2        1.0  0.7495591295264725  0.6968336253487636  0.7572788285149725  1.0000
  I   I3        1.0  0.303166374385152  0.7495591295264725  0.24272117206505517  1.0000
  I   I4        1.0  0.6968336253487636  0.25044087074376953  0.24272117206505517  1.0000
  I   I5        1.0  0.2495591296595147  0.8031663742521097  0.742721172355069  1.0000
  I   I6        1.0  0.7504408706107273  0.19683362548180586  0.742721172355069  1.0000
  I   I7        1.0  0.19683362548180586  0.2495591296595147  0.2572788282249587  1.0000
  I   I8        1.0  0.8031663742521097  0.7504408706107273  0.2572788282249587  1.0000
