data_image0
_chemical_formula_structural       H76C80N4O20S4Cl4
_chemical_formula_sum              "H76 C80 N4 O20 S4 Cl4"
_cell_length_a       10.478607901626123
_cell_length_b       9.698586861075906
_cell_length_c       19.056716768300323
_cell_angle_alpha    90.0
_cell_angle_beta     98.07164802402805
_cell_angle_gamma    90.0

_space_group_name_H-M_alt    "P 1"
_space_group_IT_number       1

loop_
  _space_group_symop_operation_xyz
  'x, y, z'

loop_
  _atom_site_type_symbol
  _atom_site_label
  _atom_site_symmetry_multiplicity
  _atom_site_fract_x
  _atom_site_fract_y
  _atom_site_fract_z
  _atom_site_occupancy
  H   H1        1.0  0.031356191188018814  0.7227611074075978  0.7890646197289469  1.0000
  H   H2        1.0  0.9686438090045566  0.222761107463065  0.7109353805726473  1.0000
  H   H3        1.0  0.9686438090481065  0.2772388924814679  0.2109353806463354  1.0000
  H   H4        1.0  0.03135619109924749  0.7772388924260006  0.2890646192726376  1.0000
  H   H5        1.0  0.8119791036070435  0.9722885019306728  0.9633386446413036  1.0000
  H   H6        1.0  0.18802089645321077  0.47228850095506203  0.5366613551302933  1.0000
  H   H7        1.0  0.18802089649676065  0.027711498989470826  0.03666135520398144  1.0000
  H   H8        1.0  0.8119791026958451  0.5277114989340037  0.46333864471331604  1.0000
  H   H9        1.0  0.9167182453250304  0.5832743935823709  0.10784541757797207  1.0000
  H   H10       1.0  0.0832817548223237  0.08327439363783813  0.3921545823410009  1.0000
  H   H11       1.0  0.08328175477877382  0.4167256063066947  0.8921545822673128  1.0000
  H   H12       1.0  0.9167182452814804  0.9167256062512276  0.6078454175042839  1.0000
  H   H13       1.0  0.5884532145428121  0.9651754079317036  0.9156816948223195  1.0000
  H   H14       1.0  0.4115467855174421  0.4651754079871709  0.5843183049492772  1.0000
  H   H15       1.0  0.41154678556099195  0.03482459195736192  0.08431830502296521  1.0000
  H   H16       1.0  0.588453214586362  0.5348245919018947  0.4156816948960078  1.0000
  H   H17       1.0  0.4378185640224601  0.1569435333005971  0.9410492725244571  1.0000
  H   H18       1.0  0.562181435215367  0.6569435332451299  0.5589507277754615  1.0000
  H   H19       1.0  0.5621814352589168  0.8430564665884686  0.05895072784914959  1.0000
  H   H20       1.0  0.43781856406600994  0.34305646664393574  0.44104927259814514  1.0000
  H   H21       1.0  0.7677934460084388  0.36066689921999173  0.05797918239778187  1.0000
  H   H22       1.0  0.23220655413891522  0.8606669001956025  0.44202081752119116  1.0000
  H   H23       1.0  0.2322065542276865  0.6393331006690739  0.9420208179775004  1.0000
  H   H24       1.0  0.7677934459648889  0.13933310072454108  0.5579791823240938  1.0000
  H   H25       1.0  0.9042978020743438  0.16372597706712153  0.02622330157064714  1.0000
  H   H26       1.0  0.09570219807301014  0.6637259770116544  0.47377669834832586  1.0000
  H   H27       1.0  0.09570219802946026  0.8362740228219441  0.9737766982746379  1.0000
  H   H28       1.0  0.904297802030794  0.3362740228774113  0.5262233014969591  1.0000
  H   H29       1.0  0.4266755003762093  0.34550368605228643  0.04110794278823481  1.0000
  H   H30       1.0  0.5733244997711447  0.8455036859968194  0.4588920571307382  1.0000
  H   H31       1.0  0.5733244997275947  0.6544963138367792  0.95889205705705  1.0000
  H   H32       1.0  0.4266755003326594  0.1544963138922464  0.5411079427145467  1.0000
  H   H33       1.0  0.6659113321932525  0.5325249630673569  0.05415524797388108  1.0000
  H   H34       1.0  0.3340886679541014  0.03252496312282408  0.445844751945092  1.0000
  H   H35       1.0  0.33408866791055153  0.46747503682170877  0.9458447518714038  1.0000
  H   H36       1.0  0.6659113321497027  0.9674750367662416  0.554155247900193  1.0000
  H   H37       1.0  0.33079488509466726  0.4760327732413414  0.10296687291968601  1.0000
  H   H38       1.0  0.6692051150526868  0.9760327731858742  0.397033126999287  1.0000
  H   H39       1.0  0.669205115141458  0.5239672276788023  0.8970331274555962  1.0000
  H   H40       1.0  0.33079488505111737  0.02396722670319143  0.6029668728459979  1.0000
  H   H41       1.0  0.27029651325692833  0.5479269161703917  0.2165945270401193  1.0000
  H   H42       1.0  0.7297034859356774  0.04792691622585882  0.28340547287717816  1.0000
  H   H43       1.0  0.7297034858921274  0.452073083718674  0.78340547280349  1.0000
  H   H44       1.0  0.2702965132133784  0.9520730836632069  0.7165945269664312  1.0000
  H   H45       1.0  0.6457045019416046  0.732044010297433  0.2750694225062513  1.0000
  H   H46       1.0  0.3542954982057494  0.23204401035290026  0.2249305774127217  1.0000
  H   H47       1.0  0.3542954982945207  0.2679559895916325  0.724930577869031  1.0000
  H   H48       1.0  0.6457045018980547  0.7679559895361654  0.7750694224325632  1.0000
  H   H49       1.0  0.7066565830861966  0.6598724114834642  0.15914064692151988  1.0000
  H   H50       1.0  0.2933434170611574  0.15987241153893136  0.3408593529974532  1.0000
  H   H51       1.0  0.29334341701760747  0.3401275884056014  0.8408593529237651  1.0000
  H   H52       1.0  0.7066565830426468  0.8401275883501342  0.6591406468478318  1.0000
  H   H53       1.0  0.7448325545324109  0.09932841905724107  0.7937231004743396  1.0000
  H   H54       1.0  0.25516744566016447  0.5993284190017739  0.7062768998272545  1.0000
  H   H55       1.0  0.25516744570371436  0.9006715808318246  0.20627689990094258  1.0000
  H   H56       1.0  0.7448325545759609  0.40067158088729177  0.29372310054802775  1.0000
  H   H57       1.0  0.831408206561087  0.9500525439412143  0.832025621803011  1.0000
  H   H58       1.0  0.16859179349916717  0.4500525439966813  0.6679743779685857  1.0000
  H   H59       1.0  0.16859179354271706  0.04994745594785148  0.1679743780422739  1.0000
  H   H60       1.0  0.831408206604637  0.5499474558923844  0.33202562187669915  1.0000
  H   H61       1.0  0.8558626737382784  0.010443329677903606  0.7453543563690108  1.0000
  H   H62       1.0  0.14413732645429692  0.5104433296224364  0.7546456439325833  1.0000
  H   H63       1.0  0.1441373263655256  0.989556670211162  0.254645643476274  1.0000
  H   H64       1.0  0.8558626737818282  0.48955667026662925  0.245354356442699  1.0000
  H   H65       1.0  0.18211254817526903  0.0928870610640757  0.8576879778365368  1.0000
  H   H66       1.0  0.8178874520173064  0.5928870610086084  0.6423120224650574  1.0000
  H   H67       1.0  0.8178874520608562  0.90711293882499  0.14231202253874548  1.0000
  H   H68       1.0  0.1821125480864977  0.40711293888045713  0.35768797738022756  1.0000
  H   H69       1.0  0.0985459404254817  0.0104374844964548  0.7786786751283363  1.0000
  H   H70       1.0  0.9014540586800243  0.5104374844409877  0.7213213246415849  1.0000
  H   H71       1.0  0.901454058723574  0.989562515392611  0.22132132471527302  1.0000
  H   H72       1.0  0.09854594046903159  0.48956251544807805  0.2786786752020245  1.0000
  H   H73       1.0  0.08072050859773736  0.9458850264895515  0.8654563941826063  1.0000
  H   H74       1.0  0.919279491462517  0.44588502654501866  0.6345436055889906  1.0000
  H   H75       1.0  0.9192794915060668  0.05411497339951414  0.1345436056626787  1.0000
  H   H76       1.0  0.08072050864128721  0.5541149733440469  0.36545639425629434  1.0000
  C   C1        1.0  0.8550987935584764  0.7568801089425586  0.9986244493656676  1.0000
  C   C2        1.0  0.14490120663409883  0.2568801089980258  0.5013755509359263  1.0000
  C   C3        1.0  0.14490120667764872  0.243119890946507  0.0013755510096145473  1.0000
  C   C4        1.0  0.8550987934697052  0.7431198908910398  0.4986244489093585  1.0000
  C   C5        1.0  0.9267680343467304  0.6222874833674973  0.9977278226153433  1.0000
  C   C6        1.0  0.0732319657135239  0.12228748342296437  0.5022721771562535  1.0000
  C   C7        1.0  0.07323196575707377  0.37771251652156845  0.002272177229941543  1.0000
  C   C8        1.0  0.9267680343902801  0.8777125164661014  0.4977278226890314  1.0000
  C   C9        1.0  0.9523145716936754  0.5456782432129398  0.060273022685331176  1.0000
  C   C10       1.0  0.0476854284536787  0.04567824326840689  0.4397269772336419  1.0000
  C   C11       1.0  0.047685428410128766  0.45432175667612595  0.9397269771599537  1.0000
  C   C12       1.0  0.9523145716501253  0.9543217566206589  0.560273022611643  1.0000
  C   C13       1.0  0.9745562619304932  0.5752309135251799  0.9367336760496052  1.0000
  C   C14       1.0  0.02544373812976107  0.075230913580647  0.5632663237219916  1.0000
  C   C15       1.0  0.025443738173310956  0.4247690863638859  0.06326632379567969  1.0000
  C   C16       1.0  0.9745562619740429  0.9247690863084186  0.4367336761232934  1.0000
  C   C17       1.0  0.9446502660975635  0.6484517064274997  0.8669580837582285  1.0000
  C   C18       1.0  0.05534973396269062  0.1484517064829669  0.6330419160133682  1.0000
  C   C19       1.0  0.05534973400624049  0.35154829346156585  0.13304191608705634  1.0000
  C   C20       1.0  0.9446502661411135  0.8515482934060988  0.3669580838319167  1.0000
  C   C21       1.0  0.6219029600589779  0.05719240008316699  0.9455111256363441  1.0000
  C   C22       1.0  0.37809704013359746  0.5571924000276999  0.5544888746652501  1.0000
  C   C23       1.0  0.3780970401771474  0.9428075998058987  0.05448887473893828  1.0000
  C   C24       1.0  0.6219029599702066  0.44280759986136586  0.4455111251800347  1.0000
  C   C25       1.0  0.540776611981144  0.16274068300965924  0.9596447493034621  1.0000
  C   C26       1.0  0.45922338807911023  0.6627406829541921  0.5403552504681348  1.0000
  C   C27       1.0  0.4592233881226601  0.8372593168794064  0.04035525054182295  1.0000
  C   C28       1.0  0.5407766120246938  0.3372593169348736  0.45964474937715  1.0000
  C   C29       1.0  0.5915622298111867  0.27664174878590087  0.00020048008112480276  1.0000
  C   C30       1.0  0.4084377703361674  0.7766417487304338  0.49979951983784826  1.0000
  C   C31       1.0  0.4084377702926175  0.7233582521342428  0.9997995197641601  1.0000
  C   C32       1.0  0.5915622298999579  0.22335825218970998  0.500200480537434  1.0000
  C   C33       1.0  0.7235948219930234  0.2777070730592202  0.024878459832371167  1.0000
  C   C34       1.0  0.27640517815433063  0.7777070730037531  0.4751215400866018  1.0000
  C   C35       1.0  0.27640517811078075  0.7222929268298455  0.9751215400129137  1.0000
  C   C36       1.0  0.7235948219494734  0.2222929268853126  0.5248784597586831  1.0000
  C   C37       1.0  0.8005502960868746  0.16946127549737441  0.008760270613938474  1.0000
  C   C38       1.0  0.1994497040604794  0.6694612754419073  0.49123972930503457  1.0000
  C   C39       1.0  0.19944970401692952  0.8305387243916913  0.9912397292313465  1.0000
  C   C40       1.0  0.8005502961756458  0.3305387244471584  0.5087602710702477  1.0000
  C   C41       1.0  0.503780826410827  0.39071527473845064  0.014957299693419756  1.0000
  C   C42       1.0  0.496219173736527  0.8907152746829835  0.4850427002255533  1.0000
  C   C43       1.0  0.496219173692977  0.609284725150615  0.9850427001518651  1.0000
  C   C44       1.0  0.5037808263672771  0.10928472520608222  0.5149572996197316  1.0000
  C   C45       1.0  0.5612124784743148  0.5237657612148742  0.05169990492701357  1.0000
  C   C46       1.0  0.438787520850612  0.023765761270341426  0.44830009552028116  1.0000
  C   C47       1.0  0.4387875208070622  0.4762342386741914  0.948300095446593  1.0000
  C   C48       1.0  0.5612124784307648  0.9762342386187243  0.5516999048533255  1.0000
  C   C49       1.0  0.5246505097192798  0.5612849787269019  0.12253105096343787  1.0000
  C   C50       1.0  0.4753494904280741  0.06128497878236903  0.3774689489555352  1.0000
  C   C51       1.0  0.4753494903845243  0.4387150211621638  0.8774689488818469  1.0000
  C   C52       1.0  0.5246505096757299  0.9387150211066967  0.6225310508897497  1.0000
  C   C53       1.0  0.40154511284784894  0.5323016233137384  0.13952318486364818  1.0000
  C   C54       1.0  0.5984548872995049  0.03230162233812756  0.36047681505532486  1.0000
  C   C55       1.0  0.5984548872559552  0.46769837760640526  0.8604768149816368  1.0000
  C   C56       1.0  0.40154511280429905  0.967698377550938  0.6395231847899601  1.0000
  C   C57       1.0  0.365767311275096  0.5726508087781235  0.2040692588733835  1.0000
  C   C58       1.0  0.634232688872258  0.07265080883359068  0.2959307410455895  1.0000
  C   C59       1.0  0.634232688828708  0.42734919111094216  0.7959307409719014  1.0000
  C   C60       1.0  0.3657673113638673  0.9273491910554749  0.7040692593296927  1.0000
  C   C61       1.0  0.45452162071905905  0.6434189515840189  0.2523812590343596  1.0000
  C   C62       1.0  0.5454783784735465  0.14341895163948604  0.24761874088293792  1.0000
  C   C63       1.0  0.5454783784299966  0.35658104830504683  0.7476187408092498  1.0000
  C   C64       1.0  0.4545216206755092  0.8565810482495795  0.7523812589606714  1.0000
  C   C65       1.0  0.5774766727426683  0.6755799678710244  0.2371780336797722  1.0000
  C   C66       1.0  0.42252332753700683  0.17557996792649155  0.26282196676919817  1.0000
  C   C67       1.0  0.42252332749345684  0.32442003201804126  0.7628219666955101  1.0000
  C   C68       1.0  0.5774766726991185  0.8244200319625741  0.737178033606084  1.0000
  C   C69       1.0  0.6112615072937551  0.633865187584454  0.17204128428451665  1.0000
  C   C70       1.0  0.38873849189885046  0.13386518763992114  0.3279587156327808  1.0000
  C   C71       1.0  0.38873849185530057  0.3661348123046117  0.8279587155590927  1.0000
  C   C72       1.0  0.6112615072502052  0.8661348122491446  0.6720412842108285  1.0000
  C   C73       1.0  0.8353078647261395  0.04106782314839369  0.7980160066515883  1.0000
  C   C74       1.0  0.16469213533411478  0.5410678230929266  0.7019839931200085  1.0000
  C   C75       1.0  0.16469213537766464  0.958932176740672  0.20198399319369653  1.0000
  C   C76       1.0  0.8353078647696893  0.45893217679613907  0.2980160067252765  1.0000
  C   C77       1.0  0.09520037558990752  0.03799606430076554  0.8341446733335994  1.0000
  C   C78       1.0  0.9047996244703467  0.5379960642452983  0.6658553264379973  1.0000
  C   C79       1.0  0.9047996245138965  0.9620039355883001  0.16585532651168539  1.0000
  C   C80       1.0  0.09520037563345743  0.4620039356437673  0.33414467340728765  1.0000
  N   N1        1.0  0.7488861193113453  0.06302201328454095  0.9696764510822408  1.0000
  N   N2        1.0  0.25111388088123004  0.5630220132290737  0.5303235492193533  1.0000
  N   N3        1.0  0.25111388092477993  0.9369779866045246  0.030323549293041412  1.0000
  N   N4        1.0  0.7488861193548952  0.4369779866599918  0.46967645115592893  1.0000
  O   O1        1.0  0.9747461099475656  0.26950458942531325  0.7866464658323061  1.0000
  O   O2        1.0  0.0252538901126885  0.7695045893698461  0.7133535339392906  1.0000
  O   O3        1.0  0.025253890156238402  0.7304954104637523  0.21335353401297877  1.0000
  O   O4        1.0  0.9747461099911156  0.23049541051921957  0.28664646590599424  1.0000
  O   O5        1.0  0.7675020652155137  0.767644603965952  0.03685941963779041  1.0000
  O   O6        1.0  0.2324979349318403  0.2676446040214192  0.4631405802811826  1.0000
  O   O7        1.0  0.23249793488829046  0.2323553959231136  0.9631405802074947  1.0000
  O   O8        1.0  0.767502065304285  0.7323553958676464  0.5368594200940996  1.0000
  O   O9        1.0  0.8936709883490445  0.8535770497890485  0.9598667011210216  1.0000
  O   O10       1.0  0.10632901171120968  0.3535770498445156  0.5401332986505754  1.0000
  O   O11       1.0  0.10632901175475956  0.1464229501000172  0.04013329872426347  1.0000
  O   O12       1.0  0.8936709883925945  0.6464229500445501  0.45986670119470957  1.0000
  O   O13       1.0  0.05137957978850598  0.6839770417093635  0.8406752760341895  1.0000
  O   O14       1.0  0.9486204202717482  0.18397704176483068  0.6593247237374075  1.0000
  O   O15       1.0  0.9486204203152983  0.31602295817970216  0.15932472381109553  1.0000
  O   O16       1.0  0.051379579832055836  0.816022958124235  0.34067527610787746  1.0000
  O   O17       1.0  0.8343340105126253  0.6666941290128013  0.8368766669311593  1.0000
  O   O18       1.0  0.1656659895476289  0.16669412906826847  0.6631233328404375  1.0000
  O   O19       1.0  0.16566598959117879  0.33330587087626434  0.1631233329141256  1.0000
  O   O20       1.0  0.8343340105561753  0.8333058708207972  0.3368766670048475  1.0000
  S   S1        1.0  0.961903616431667  0.15228681571411462  0.8391955852905574  1.0000
  S   S2        1.0  0.03809638280616005  0.6522868156586474  0.6608044150093612  1.0000
  S   S3        1.0  0.038096382717388765  0.8477131841749509  0.16080441455305192  1.0000
  S   S4        1.0  0.9619036164752169  0.3477131842304182  0.33919558536424554  1.0000
  Cl  Cl1       1.0  0.4085190444709015  0.6907123837685419  0.3333679734777694  1.0000
  Cl  Cl2       1.0  0.5914809556764525  0.1907123838240091  0.16663202644120365  1.0000
  Cl  Cl3       1.0  0.5914809556329025  0.30928761612052375  0.6666320263675155  1.0000
  Cl  Cl4       1.0  0.4085190445596728  0.8092876160650565  0.8333679739340787  1.0000
