data_image0
_chemical_formula_structural       H68C80N12O24Cl16
_chemical_formula_sum              "H68 C80 N12 O24 Cl16"
_cell_length_a       3.9463405083698913
_cell_length_b       14.388318716052769
_cell_length_c       39.351901919716234
_cell_angle_alpha    90.0
_cell_angle_beta     90.0
_cell_angle_gamma    90.0

_space_group_name_H-M_alt    "P 1"
_space_group_IT_number       1

loop_
  _space_group_symop_operation_xyz
  'x, y, z'

loop_
  _atom_site_type_symbol
  _atom_site_label
  _atom_site_symmetry_multiplicity
  _atom_site_fract_x
  _atom_site_fract_y
  _atom_site_fract_z
  _atom_site_occupancy
  H   H1        1.0  0.08016227928863473  0.7155265193363988  0.22839133768772132  1.0000
  H   H2        1.0  0.41983771965090283  0.784473481075105  0.7283913376913269  1.0000
  H   H3        1.0  0.9198377211244337  0.7155265193363988  0.27160866231588415  1.0000
  H   H4        1.0  0.5801622807621655  0.784473481075105  0.7716086623194897  1.0000
  H   H5        1.0  0.9198377211244337  0.284473480937937  0.7716086623194897  1.0000
  H   H6        1.0  0.5801622807621655  0.21552651919923085  0.27160866231588415  1.0000
  H   H7        1.0  0.08016227928863473  0.284473480937937  0.7283913376913269  1.0000
  H   H8        1.0  0.41983771965090283  0.21552651919923085  0.22839133768772132  1.0000
  H   H9        1.0  4.130684683190111e-10  0.32405015429621375  0.2500000000018028  1.0000
  H   H10       1.0  0.49999999893953756  0.1759498451459459  0.7500000000054082  1.0000
  H   H11       1.0  4.130684683190111e-10  0.6759498452831139  0.7500000000054082  1.0000
  H   H12       1.0  0.49999999893953756  0.8240501544333816  0.2500000000018028  1.0000
  H   H13       1.0  0.2632780211936582  0.41554470456158  0.2019607198710285  1.0000
  H   H14       1.0  0.23672198027987262  0.0844552955755879  0.7019607196205166  1.0000
  H   H15       1.0  0.7367219792194102  0.41554470456158  0.29803928013257697  1.0000
  H   H16       1.0  0.7632780201331958  0.0844552955755879  0.7980392801361825  1.0000
  H   H17       1.0  0.7367219792194102  0.5844552957127558  0.7980392801361825  1.0000
  H   H18       1.0  0.7632780201331958  0.9155447040037397  0.29803928013257697  1.0000
  H   H19       1.0  0.2632780211936582  0.5844552957127558  0.7019607196205166  1.0000
  H   H20       1.0  0.23672198027987262  0.9155447040037397  0.2019607198710285  1.0000
  H   H21       1.0  0.8450922425286591  0.03123221196779833  0.05644870544076661  1.0000
  H   H22       1.0  0.654907756823947  0.46876778816936954  0.5564487054443721  1.0000
  H   H23       1.0  0.15490775535041615  0.03123221196779833  0.44355129456283887  1.0000
  H   H24       1.0  0.34509224358912144  0.46876778816936954  0.9435512945664444  1.0000
  H   H25       1.0  0.15490775535041615  0.9687677883065374  0.9435512945664444  1.0000
  H   H26       1.0  0.34509224358912144  0.5312322121049662  0.44355129456283887  1.0000
  H   H27       1.0  0.8450922425286591  0.9687677883065374  0.5564487054443721  1.0000
  H   H28       1.0  0.654907756823947  0.5312322121049662  0.05644870544076661  1.0000
  H   H29       1.0  0.7344136862627635  0.9400724203383981  0.003553023695913101  1.0000
  H   H30       1.0  0.7655863130898425  0.5599275800731055  0.5035530236995186  1.0000
  H   H31       1.0  0.26558631415030487  0.9400724203383981  0.4964469763076924  1.0000
  H   H32       1.0  0.2344136873232259  0.5599275800731055  0.9964469763112979  1.0000
  H   H33       1.0  0.26558631415030487  0.05992757993593764  0.9964469763112979  1.0000
  H   H34       1.0  0.2344136873232259  0.4400724202012302  0.4964469763076924  1.0000
  H   H35       1.0  0.7344136862627635  0.05992757993593764  0.5035530236995186  1.0000
  H   H36       1.0  0.7655863130898425  0.4400724202012302  0.003553023695913101  1.0000
  H   H37       1.0  0.43913657129294204  0.7881212714136274  0.006680784083482381  1.0000
  H   H38       1.0  0.06086342764659555  0.7118787289978763  0.5066807840870879  1.0000
  H   H39       1.0  0.5608634291201263  0.7881212714136274  0.49331921592012307  1.0000
  H   H40       1.0  0.9391365702324797  0.7118787289978763  0.9933192159237286  1.0000
  H   H41       1.0  0.5608634291201263  0.21187872886070833  0.9933192159237286  1.0000
  H   H42       1.0  0.9391365702324797  0.28812127127645953  0.49331921592012307  1.0000
  H   H43       1.0  0.43913657129294204  0.21187872886070833  0.5066807840870879  1.0000
  H   H44       1.0  0.06086342764659555  0.28812127127645953  0.006680784083482381  1.0000
  H   H45       1.0  0.7988813771425577  0.7805151033713599  0.14409406441316136  1.0000
  H   H46       1.0  0.7011186247440415  0.7194848970401436  0.6440940644167669  1.0000
  H   H47       1.0  0.20111862327051072  0.7805151033713599  0.35590593559044414  1.0000
  H   H48       1.0  0.2988813756690269  0.7194848970401436  0.8559059355940496  1.0000
  H   H49       1.0  0.20111862327051072  0.21948489690297582  0.8559059355940496  1.0000
  H   H50       1.0  0.2988813756690269  0.280515103234192  0.35590593559044414  1.0000
  H   H51       1.0  0.7988813771425577  0.21948489690297582  0.6440940644167669  1.0000
  H   H52       1.0  0.7011186247440415  0.280515103234192  0.14409406441316136  1.0000
  H   H53       1.0  0.6131722553762947  0.6880943642813652  0.11997295733334264  1.0000
  H   H54       1.0  0.8868277439763111  0.8119056354351301  0.6199729573369481  1.0000
  H   H55       1.0  0.38682774503677364  0.6880943642813652  0.3800270426702628  1.0000
  H   H56       1.0  0.11317225390276398  0.8119056354351301  0.8800270426738683  1.0000
  H   H57       1.0  0.38682774503677364  0.3119056359929705  0.8800270426738683  1.0000
  H   H58       1.0  0.11317225390276398  0.18809436414419733  0.3800270426702628  1.0000
  H   H59       1.0  0.6131722553762947  0.3119056359929705  0.6199729573369481  1.0000
  H   H60       1.0  0.8868277439763111  0.18809436414419733  0.11997295733334264  1.0000
  H   H61       1.0  0.34825728471355283  0.5941977974439417  0.1971973043598183  1.0000
  H   H62       1.0  0.15174271422598481  0.9058022029675619  0.6971973043634239  1.0000
  H   H63       1.0  0.6517427156995156  0.5941977974439417  0.3028026956437872  1.0000
  H   H64       1.0  0.8482572861870836  0.9058022029675619  0.8028026956473927  1.0000
  H   H65       1.0  0.6517427156995156  0.405802202830394  0.8028026956473927  1.0000
  H   H66       1.0  0.8482572861870836  0.09419779730677388  0.3028026956437872  1.0000
  H   H67       1.0  0.34825728471355283  0.405802202830394  0.6971973043634239  1.0000
  H   H68       1.0  0.15174271422598481  0.09419779730677388  0.1971973043598183  1.0000
  C   C1        1.0  4.130684683190111e-10  0.5886957744791824  0.2500000000018028  1.0000
  C   C2        1.0  0.49999999893953756  0.9113042259323213  0.7500000000054082  1.0000
  C   C3        1.0  4.130684683190111e-10  0.4113042257951534  0.7500000000054082  1.0000
  C   C4        1.0  0.49999999893953756  0.08869577434201449  0.2500000000018028  1.0000
  C   C5        1.0  4.130684683190111e-10  0.3994370345430234  0.2500000000018028  1.0000
  C   C6        1.0  0.49999999893953756  0.10056296489913626  0.7500000000054082  1.0000
  C   C7        1.0  4.130684683190111e-10  0.6005629650363041  0.7500000000054082  1.0000
  C   C8        1.0  0.49999999893953756  0.8994370346801913  0.2500000000018028  1.0000
  C   C9        1.0  0.14564369414676157  0.4502266399459594  0.22364218120778093  1.0000
  C   C10       1.0  0.3543563073267692  0.04977336019120842  0.7236421812113865  1.0000
  C   C11       1.0  0.8543563062663069  0.4502266399459594  0.27635781879582455  1.0000
  C   C12       1.0  0.6456436930862992  0.04977336019120842  0.7763578187994301  1.0000
  C   C13       1.0  0.8543563062663069  0.5497733603283763  0.7763578187994301  1.0000
  C   C14       1.0  0.6456436930862992  0.9502266400831273  0.27635781879582455  1.0000
  C   C15       1.0  0.14564369414676157  0.5497733603283763  0.7236421812113865  1.0000
  C   C16       1.0  0.3543563073267692  0.9502266400831273  0.22364218120778093  1.0000
  C   C17       1.0  0.44109543165575277  0.8438753811071381  0.09127397723565735  1.0000
  C   C18       1.0  0.05890456981777805  0.6561246193043654  0.5912739772392629  1.0000
  C   C19       1.0  0.5589045687573156  0.8438753811071381  0.4087260227679481  1.0000
  C   C20       1.0  0.9410954305952903  0.6561246193043654  0.9087260227715537  1.0000
  C   C21       1.0  0.5589045687573156  0.15612461916719758  0.9087260227715537  1.0000
  C   C22       1.0  0.9410954305952903  0.3438753809699703  0.4087260227679481  1.0000
  C   C23       1.0  0.44109543165575277  0.15612461916719758  0.5912739772392629  1.0000
  C   C24       1.0  0.05890456981777805  0.3438753809699703  0.09127397723565735  1.0000
  C   C25       1.0  0.6059613570922654  0.9303689634748639  0.088931373307947  1.0000
  C   C26       1.0  0.8940386422603406  0.5696310369366396  0.5889313733115524  1.0000
  C   C27       1.0  0.39403864332080296  0.9303689634748639  0.4110686266956585  1.0000
  C   C28       1.0  0.10596135815272781  0.5696310369366396  0.911068626699264  1.0000
  C   C29       1.0  0.39403864332080296  0.06963103679947186  0.911068626699264  1.0000
  C   C30       1.0  0.10596135815272781  0.430368963337696  0.4110686266956585  1.0000
  C   C31       1.0  0.6059613570922654  0.06963103679947186  0.5889313733115524  1.0000
  C   C32       1.0  0.8940386422603406  0.430368963337696  0.088931373307947  1.0000
  C   C33       1.0  0.7108759277234302  0.9651347411777107  0.05749974866821676  1.0000
  C   C34       1.0  0.7891240716291756  0.534865259233793  0.5574997486718223  1.0000
  C   C35       1.0  0.28912407268963813  0.9651347411777107  0.44250025133538873  1.0000
  C   C36       1.0  0.21087592878389266  0.534865259233793  0.9425002513389943  1.0000
  C   C37       1.0  0.28912407268963813  0.0348652590966251  0.9425002513389943  1.0000
  C   C38       1.0  0.21087592878389266  0.46513474104054275  0.44250025133538873  1.0000
  C   C39       1.0  0.7108759277234302  0.0348652590966251  0.5574997486718223  1.0000
  C   C40       1.0  0.7891240716291756  0.46513474104054275  0.05749974866821676  1.0000
  C   C41       1.0  0.6510727532382448  0.9136372719721305  0.02810654519968309  1.0000
  C   C42       1.0  0.8489272461143611  0.5863627277443649  0.5281065452032886  1.0000
  C   C43       1.0  0.34892724717482354  0.9136372719721305  0.4718934545498051  1.0000
  C   C44       1.0  0.15107275429870726  0.5863627277443649  0.9718934545534107  1.0000
  C   C45       1.0  0.34892724717482354  0.08636272830220525  0.9718934545534107  1.0000
  C   C46       1.0  0.15107275429870726  0.4136372718349626  0.4718934545498051  1.0000
  C   C47       1.0  0.6510727532382448  0.08636272830220525  0.5281065452032886  1.0000
  C   C48       1.0  0.8489272461143611  0.4136372718349626  0.02810654519968309  1.0000
  C   C49       1.0  0.4863705085582786  0.8280368558077404  0.029690081622576504  1.0000
  C   C50       1.0  0.013629492915252148  0.671963143908755  0.529690081626182  1.0000
  C   C51       1.0  0.5136294918547897  0.8280368558077404  0.470309918381029  1.0000
  C   C52       1.0  0.9863705074978162  0.671963143908755  0.9703099183846344  1.0000
  C   C53       1.0  0.5136294918547897  0.1719631437715871  0.9703099183846344  1.0000
  C   C54       1.0  0.9863705074978162  0.3280368556705725  0.470309918381029  1.0000
  C   C55       1.0  0.4863705085582786  0.1719631437715871  0.529690081626182  1.0000
  C   C56       1.0  0.013629492915252148  0.3280368556705725  0.029690081622576504  1.0000
  C   C57       1.0  0.3843483568594869  0.7935753221299524  0.061167501253452945  1.0000
  C   C58       1.0  0.1156516420800507  0.7064246782815512  0.5611675012570584  1.0000
  C   C59       1.0  0.6156516435535815  0.7935753221299524  0.43883249875015257  1.0000
  C   C60       1.0  0.8843483557990245  0.7064246782815512  0.9388324987537581  1.0000
  C   C61       1.0  0.6156516435535815  0.20642467814438334  0.9388324987537581  1.0000
  C   C62       1.0  0.8843483557990245  0.2935753219927845  0.43883249875015257  1.0000
  C   C63       1.0  0.3843483568594869  0.20642467814438334  0.5611675012570584  1.0000
  C   C64       1.0  0.1156516420800507  0.2935753219927845  0.061167501253452945  1.0000
  C   C65       1.0  0.5592655031462714  0.745841859064963  0.1374086307450065  1.0000
  C   C66       1.0  0.9407344987403277  0.7541581413465406  0.637408630748612  1.0000
  C   C67       1.0  0.4407344972667969  0.745841859064963  0.36259136925859903  1.0000
  C   C68       1.0  0.05926550167274065  0.7541581413465406  0.8625913692622045  1.0000
  C   C69       1.0  0.4407344972667969  0.2541581412093727  0.8625913692622045  1.0000
  C   C70       1.0  0.05926550167274065  0.24584185892779514  0.36259136925859903  1.0000
  C   C71       1.0  0.5592655031462714  0.2541581412093727  0.637408630748612  1.0000
  C   C72       1.0  0.9407344987403277  0.24584185892779514  0.1374086307450065  1.0000
  C   C73       1.0  0.39919391817781313  0.7089962031921525  0.16958050194408802  1.0000
  C   C74       1.0  0.10080608329571765  0.7910037972193512  0.6695805019476935  1.0000
  C   C75       1.0  0.6008060822352552  0.7089962031921525  0.3304194980595175  1.0000
  C   C76       1.0  0.8991939171173507  0.7910037972193512  0.830419498063123  1.0000
  C   C77       1.0  0.6008060822352552  0.29100379708218327  0.830419498063123  1.0000
  C   C78       1.0  0.8991939171173507  0.20899620305498462  0.3304194980595175  1.0000
  C   C79       1.0  0.39919391817781313  0.29100379708218327  0.6695805019476935  1.0000
  C   C80       1.0  0.10080608329571765  0.20899620305498462  0.16958050194408802  1.0000
  N   N1        1.0  0.15111307773244603  0.5431318366114054  0.22374009794908256  1.0000
  N   N2        1.0  0.34888692374108476  0.9568681638000981  0.7237400979526881  1.0000
  N   N3        1.0  0.8488869226806224  0.5431318366114054  0.27625990205452294  1.0000
  N   N4        1.0  0.6511130766719836  0.9568681638000981  0.7762599020581284  1.0000
  N   N5        1.0  0.8488869226806224  0.4568681636629303  0.7762599020581284  1.0000
  N   N6        1.0  0.6511130766719836  0.04313183647423758  0.27625990205452294  1.0000
  N   N7        1.0  0.15111307773244603  0.4568681636629303  0.7237400979526881  1.0000
  N   N8        1.0  0.34888692374108476  0.04313183647423758  0.22374009794908256  1.0000
  N   N9        1.0  4.130684683190111e-10  0.6813984255896186  0.2500000000018028  1.0000
  N   N10       1.0  0.49999999893953756  0.8186015741268768  0.7500000000054082  1.0000
  N   N11       1.0  4.130684683190111e-10  0.3186015739897089  0.7500000000054082  1.0000
  N   N12       1.0  0.49999999893953756  0.18139842614745896  0.2500000000018028  1.0000
  O   O1        1.0  0.33005861689771704  0.8116062710628915  0.12202300716739096  1.0000
  O   O2        1.0  0.16994138204182055  0.6883937286536038  0.6220230071709965  1.0000
  O   O3        1.0  0.6699413835153514  0.8116062710628915  0.37797699283621455  1.0000
  O   O4        1.0  0.8300586183712478  0.6883937286536038  0.87797699283982  1.0000
  O   O5        1.0  0.6699413835153514  0.18839372851643596  0.87797699283982  1.0000
  O   O6        1.0  0.8300586183712478  0.3116062709257237  0.37797699283621455  1.0000
  O   O7        1.0  0.33005861689771704  0.18839372851643596  0.6220230071709965  1.0000
  O   O8        1.0  0.16994138204182055  0.3116062709257237  0.12202300716739096  1.0000
  O   O9        1.0  0.20467789798849548  0.7566331893839647  0.18720031359676456  1.0000
  O   O10       1.0  0.29532210095104217  0.7433668103325307  0.68720031360037  1.0000
  O   O11       1.0  0.7953221024245729  0.7566331893839647  0.31279968640684097  1.0000
  O   O12       1.0  0.7046778969280332  0.7433668103325307  0.8127996864104464  1.0000
  O   O13       1.0  0.7953221024245729  0.24336681019536274  0.8127996864104464  1.0000
  O   O14       1.0  0.7046778969280332  0.2566331892467969  0.31279968640684097  1.0000
  O   O15       1.0  0.20467789798849548  0.24336681019536274  0.68720031360037  1.0000
  O   O16       1.0  0.29532210095104217  0.2566331892467969  0.18720031359676456  1.0000
  O   O17       1.0  0.49345171707050184  0.6235660223449205  0.17658517990253492  1.0000
  O   O18       1.0  0.0065482818690357795  0.876433978066583  0.6765851799061404  1.0000
  O   O19       1.0  0.5065482833425665  0.6235660223449205  0.3234148201010706  1.0000
  O   O20       1.0  0.9934517185440327  0.876433978066583  0.8234148201046761  1.0000
  O   O21       1.0  0.5065482833425665  0.3764339779294152  0.8234148201046761  1.0000
  O   O22       1.0  0.9934517185440327  0.12356602220775267  0.3234148201010706  1.0000
  O   O23       1.0  0.49345171707050184  0.3764339779294152  0.6765851799061404  1.0000
  O   O24       1.0  0.0065482818690357795  0.12356602220775267  0.17658517990253492  1.0000
  Cl  Cl1       1.0  0.6877570027836039  0.9922120132126521  0.12543441178701725  1.0000
  Cl  Cl2       1.0  0.8122429991029954  0.5077879871988515  0.6254344117906228  1.0000
  Cl  Cl3       1.0  0.31224299762946456  0.9922120132126521  0.37456558821658825  1.0000
  Cl  Cl4       1.0  0.18775700131007306  0.5077879871988515  0.8745655882201937  1.0000
  Cl  Cl5       1.0  0.31224299762946456  0.007787987061683672  0.8745655882201937  1.0000
  Cl  Cl6       1.0  0.18775700131007306  0.4922120130754842  0.37456558821658825  1.0000
  Cl  Cl7       1.0  0.6877570027836039  0.007787987061683672  0.6254344117906228  1.0000
  Cl  Cl8       1.0  0.8122429991029954  0.4922120130754842  0.12543441178701725  1.0000
  Cl  Cl9       1.0  0.18965863650452305  0.685818321427  0.06356701551816732  1.0000
  Cl  Cl10      1.0  0.31034136243501453  0.8141816789845036  0.5635670155217728  1.0000
  Cl  Cl11      1.0  0.8103413639085453  0.685818321427  0.4364329844854382  1.0000
  Cl  Cl12      1.0  0.6896586354440607  0.8141816789845036  0.9364329844890437  1.0000
  Cl  Cl13      1.0  0.8103413639085453  0.3141816788473356  0.9364329844890437  1.0000
  Cl  Cl14      1.0  0.6896586354440607  0.18581832128983222  0.4364329844854382  1.0000
  Cl  Cl15      1.0  0.18965863650452305  0.3141816788473356  0.5635670155217728  1.0000
  Cl  Cl16      1.0  0.31034136243501453  0.18581832128983222  0.06356701551816732  1.0000
