data_image0
_chemical_formula_structural       H42C24N4O28P6S2
_chemical_formula_sum              "H42 C24 N4 O28 P6 S2"
_cell_length_a       8.105673653876146
_cell_length_b       10.596911083070088
_cell_length_c       12.546709428180934
_cell_angle_alpha    82.00314022052379
_cell_angle_beta     78.412445014544
_cell_angle_gamma    84.81567921409516

_space_group_name_H-M_alt    "P 1"
_space_group_IT_number       1

loop_
  _space_group_symop_operation_xyz
  'x, y, z'

loop_
  _atom_site_type_symbol
  _atom_site_label
  _atom_site_symmetry_multiplicity
  _atom_site_fract_x
  _atom_site_fract_y
  _atom_site_fract_z
  _atom_site_occupancy
  H   H1        1.0  0.44913592965333327  0.3341582053603131  0.3149244590176042  1.0000
  H   H2        1.0  0.5508640706793461  0.6658417953421916  0.6850755410592764  1.0000
  H   H3        1.0  0.7657318180829528  0.5417868827999344  0.2250888112098529  1.0000
  H   H4        1.0  0.23426818235840163  0.4582131169551017  0.774911188866509  1.0000
  H   H5        1.0  0.092322390758143  0.37871410808445694  0.6370204816270271  1.0000
  H   H6        1.0  0.9076776096832114  0.621285891670579  0.3629795184493349  1.0000
  H   H7        1.0  0.5385214309106  0.3740720309879965  0.52448156148272  1.0000
  H   H8        1.0  0.46147856854215014  0.625927968889019  0.47551843777119945  1.0000
  H   H9        1.0  0.004312021588488793  0.3814295438220912  0.14891780771108085  1.0000
  H   H10       1.0  0.9956879775109266  0.6185704568833996  0.8510821923632844  1.0000
  H   H11       1.0  0.2077428178691622  0.6711225971006386  0.007423159417739796  1.0000
  H   H12       1.0  0.7922571825721921  0.3288774026543975  0.9925768406586222  1.0000
  H   H13       1.0  0.2653746341481516  0.5041867638025814  0.28289731884984054  1.0000
  H   H14       1.0  0.7346253650599389  0.4958132359554405  0.7171026812240061  1.0000
  H   H15       1.0  0.0852026042383534  0.7178898624551447  0.6769988332491585  1.0000
  H   H16       1.0  0.9147973948610622  0.28211013825034587  0.32300116682520685  1.0000
  H   H17       1.0  0.1500531149132202  0.6488991395812451  0.5585692577477465  1.0000
  H   H18       1.0  0.8499468855281344  0.351100860173791  0.4414307423286154  1.0000
  H   H19       1.0  0.9521491793297266  0.7190985412522396  0.5875525708188561  1.0000
  H   H20       1.0  0.04785082111162764  0.2809014585027965  0.41244742925750577  1.0000
  H   H21       1.0  0.7257610759449503  0.6663570782911318  0.9596738352091063  1.0000
  H   H22       1.0  0.27423892350780005  0.33364292158588355  0.04032616404481315  1.0000
  H   H23       1.0  0.5141417448841579  0.6727538582751822  0.9776946638778788  1.0000
  H   H24       1.0  0.4858582555571964  0.327246141479854  0.022305336198482965  1.0000
  H   H25       1.0  0.6177777787608586  0.6044123357885037  0.08036367170721422  1.0000
  H   H26       1.0  0.3822222219251554  0.3955876640855259  0.9196363275492205  1.0000
  H   H27       1.0  0.11177473220867869  0.8052881917238657  0.37711581706965  1.0000
  H   H28       1.0  0.8882252681240006  0.19471180897863913  0.6228841830072306  1.0000
  H   H29       1.0  0.1892366581690266  0.9063064400062019  0.6835885745510273  1.0000
  H   H30       1.0  0.8107633421636529  0.09369356069630284  0.3164114255258535  1.0000
  H   H31       1.0  0.32467192030586195  0.10425219041917741  0.5851239803603999  1.0000
  H   H32       1.0  0.6753280801354925  0.8957478093358586  0.41487601971596194  1.0000
  H   H33       1.0  0.3494087556224604  0.15173324373444433  0.38300017664923747  1.0000
  H   H34       1.0  0.650591244710219  0.8482667569680605  0.6169998234276433  1.0000
  H   H35       1.0  0.3313782594029371  0.8051742694368886  0.11025917921366873  1.0000
  H   H36       1.0  0.6686217410384173  0.1948257303181474  0.8897408208626932  1.0000
  H   H37       1.0  0.8750597567479667  0.813639185508474  0.0319292629512648  1.0000
  H   H38       1.0  0.12494024246012383  0.18636081424954798  0.9680707371225818  1.0000
  H   H39       1.0  0.8571022819151387  0.009145830287017393  0.1227296433978442  1.0000
  H   H40       1.0  0.14289771729295186  0.9908541694710046  0.8772703566760024  1.0000
  H   H41       1.0  0.5738968455065763  0.10328202026549702  0.20838868604643326  1.0000
  H   H42       1.0  0.4261031551794379  0.8967179796085325  0.7916113132100016  1.0000
  C   C1        1.0  0.23192336241172518  0.9817154636413407  0.36975312241159947  1.0000
  C   C2        1.0  0.7680766381656139  0.01828453718015765  0.630246876845354  1.0000
  C   C3        1.0  0.15915651225144634  0.8698127500363726  0.4225842662831277  1.0000
  C   C4        1.0  0.840843488189908  0.13018724971866363  0.5774157337932343  1.0000
  C   C5        1.0  0.14574794145438064  0.8452336476540129  0.5357900366870213  1.0000
  C   C6        1.0  0.8542520592316335  0.15476635222001667  0.46420996256941344  1.0000
  C   C7        1.0  0.20355071250223178  0.9283358685674206  0.595023046684553  1.0000
  C   C8        1.0  0.7964492867058589  0.07166413119060161  0.40497695338929357  1.0000
  C   C9        1.0  0.27889769223462496  0.03831917900599671  0.5400743430915572  1.0000
  C   C10       1.0  0.7211023069734656  0.9616808207520253  0.4599256569822894  1.0000
  C   C11       1.0  0.2935648750962778  0.06547709365563611  0.42682221426820305  1.0000
  C   C12       1.0  0.7064351252364015  0.9345229070468688  0.5731777858086776  1.0000
  C   C13       1.0  0.43978424936347693  0.9584214322798967  0.16331793154278465  1.0000
  C   C14       1.0  0.5602157509692024  0.04157856842260816  0.8366820685340961  1.0000
  C   C15       1.0  0.4468985609693747  0.8490566169653033  0.1121299923743264  1.0000
  C   C16       1.0  0.5531014382387159  0.15094338279271866  0.8878700076995202  1.0000
  C   C17       1.0  0.6053522976789791  0.7993554869978639  0.06480199239522463  1.0000
  C   C18       1.0  0.39464770276237526  0.2006445127571723  0.9351980076811373  1.0000
  C   C19       1.0  0.7525001411824574  0.8559824373863315  0.06774956495032118  1.0000
  C   C20       1.0  0.24749985816161768  0.14401756343815272  0.932250434304117  1.0000
  C   C21       1.0  0.7417045130325769  0.9658338992035504  0.11943203578162769  1.0000
  C   C22       1.0  0.2582954861755137  0.0341661005544716  0.8805679642922188  1.0000
  C   C23       1.0  0.5850040244289625  0.01761901348218557  0.16791703161050608  1.0000
  C   C24       1.0  0.41499597590371695  0.9823809872203192  0.8320829684663745  1.0000
  N   N1        1.0  0.07564717473250665  0.7271817037295921  0.5936690854595573  1.0000
  N   N2        1.0  0.9243528244755839  0.27281829602842983  0.4063309146142893  1.0000
  N   N3        1.0  0.6164183025118659  0.6801333865949122  0.0172012856132589  1.0000
  N   N4        1.0  0.38358169669622455  0.3198666131631099  0.9827987144605878  1.0000
  O   O1        1.0  0.5631905942873866  0.2880975122705295  0.2828539121456889  1.0000
  O   O2        1.0  0.4368094048120289  0.7119024884349613  0.7171460879286765  1.0000
  O   O3        1.0  0.6641549805583883  0.508444676782453  0.20151132679058362  1.0000
  O   O4        1.0  0.33584501988296606  0.4915553229725833  0.7984886732857783  1.0000
  O   O5        1.0  0.8659996219810161  0.30690480927880326  0.1970197810370698  1.0000
  O   O6        1.0  0.13400037846033827  0.6930951904762329  0.8029802190392921  1.0000
  O   O7        1.0  0.6449356368485043  0.347745295323396  0.07604386190578308  1.0000
  O   O8        1.0  0.35506436235958616  0.652254704434626  0.9239561381680637  1.0000
  O   O9        1.0  0.11363730099498552  0.3627558604803841  0.5565366092931526  1.0000
  O   O10       1.0  0.8863626982131049  0.6372441392776379  0.44346339078069397  1.0000
  O   O11       1.0  0.29514466547317547  0.5565684863361285  0.5004539402916446  1.0000
  O   O12       1.0  0.7048553352128386  0.4434315135379012  0.49954605896479015  1.0000
  O   O13       1.0  0.4276035652069153  0.33014897610729305  0.5356834671294673  1.0000
  O   O14       1.0  0.5723964352344393  0.6698510236477431  0.4643165329468945  1.0000
  O   O15       1.0  0.28514706630848824  0.3922529708017023  0.3696050448491164  1.0000
  O   O16       1.0  0.7148529327909272  0.6077470299037884  0.6303949552252489  1.0000
  O   O17       1.0  0.10788462560116936  0.43961198932645695  0.1181788107879684  1.0000
  O   O18       1.0  0.892115374840185  0.5603880104285792  0.8818211892883935  1.0000
  O   O19       1.0  0.9275134855942265  0.5840649412173095  0.24777484508839062  1.0000
  O   O20       1.0  0.07248651484712783  0.41593505853772655  0.7522251549879713  1.0000
  O   O21       1.0  0.1044884803767433  0.6814344118078898  0.07194727065308135  1.0000
  O   O22       1.0  0.8955115189673319  0.3185655890165943  0.9280527286013569  1.0000
  O   O23       1.0  0.25165854157626244  0.5760239743437762  0.21962464895671344  1.0000
  O   O24       1.0  0.7483414590010766  0.42397602647772215  0.78037535030024  1.0000
  O   O25       1.0  0.11037206206899634  0.9551878700746831  0.19610841973479629  1.0000
  O   O26       1.0  0.8896279383723581  0.04481212968035274  0.8038915803415656  1.0000
  O   O27       1.0  0.2381671979199463  0.16079163774601515  0.20452341899126528  1.0000
  O   O28       1.0  0.7618328015328037  0.8392083621310004  0.7954765802626542  1.0000
  P   P1        1.0  0.6874918992648529  0.36029381002625543  0.18716959824006038  1.0000
  P   P2        1.0  0.31250809983456257  0.6397061906792354  0.8128304018343051  1.0000
  P   P3        1.0  0.283601150091752  0.4166974607557173  0.48837270318552445  1.0000
  P   P4        1.0  0.7163988502409272  0.5833025399467876  0.5116272968913562  1.0000
  P   P5        1.0  0.09345385347359784  0.570011476815214  0.1672353652026179  1.0000
  P   P6        1.0  0.9065461457344925  0.42998852294280787  0.8327646348712289  1.0000
  S   S1        1.0  0.23896338613679305  0.022286032781005518  0.2262830217383519  1.0000
  S   S2        1.0  0.7610366143045615  0.9777139669740305  0.7737169783380099  1.0000
