data_image0
_chemical_formula_structural       H24C28N4O8Cl4
_chemical_formula_sum              "H24 C28 N4 O8 Cl4"
_cell_length_a       3.908553888674463
_cell_length_b       10.469019878634768
_cell_length_c       17.660849645128973
_cell_angle_alpha    78.93609219122948
_cell_angle_beta     84.61711349229736
_cell_angle_gamma    85.73414783821696

_space_group_name_H-M_alt    "P 1"
_space_group_IT_number       1

loop_
  _space_group_symop_operation_xyz
  'x, y, z'

loop_
  _atom_site_type_symbol
  _atom_site_label
  _atom_site_symmetry_multiplicity
  _atom_site_fract_x
  _atom_site_fract_y
  _atom_site_fract_z
  _atom_site_occupancy
  H   H1        1.0  0.5076151760643467  0.5142944634333437  0.21397796260281066  1.0000
  H   H2        1.0  0.4923848232409339  0.485705536294937  0.7860220375022928  1.0000
  H   H3        1.0  0.16630543615104154  0.8827076724534139  0.5253011720369738  1.0000
  H   H4        1.0  0.8336945659160984  0.11729232745484175  0.4746988274877357  1.0000
  H   H5        1.0  0.6974337798413446  0.5543856324428248  0.4715199625656423  1.0000
  H   H6        1.0  0.30256621927643174  0.4456143682434824  0.5284800375389046  1.0000
  H   H7        1.0  0.8586458972946822  0.6277409028466795  0.3336907913128141  1.0000
  H   H8        1.0  0.14135410201059842  0.37225909688160125  0.6663092087922894  1.0000
  H   H9        1.0  0.07884268800917363  0.8829589858133284  0.16483428053774687  1.0000
  H   H10       1.0  0.921157311296107  0.1170410139149524  0.8351657195673566  1.0000
  H   H11       1.0  0.7772746127848711  0.7910016891020761  0.23173575210840025  1.0000
  H   H12       1.0  0.22272538652040938  0.2089983106262049  0.7682642479967031  1.0000
  H   H13       1.0  0.36572873361327823  0.07925176129185295  0.9526895967555576  1.0000
  H   H14       1.0  0.6342712682512713  0.9207482384357331  0.047310403348011544  1.0000
  H   H15       1.0  0.08122282381087573  0.21947694542779309  0.9489612078326602  1.0000
  H   H16       1.0  0.9187771780536736  0.7805230542997931  0.05103879227090894  1.0000
  H   H17       1.0  0.7801726210599832  0.27747908900677687  0.28215778488972715  1.0000
  H   H18       1.0  0.2198273782452974  0.7225209107215039  0.7178422152153763  1.0000
  H   H19       1.0  0.100917583101726  0.1107871728761571  0.2130407103208015  1.0000
  H   H20       1.0  0.8990824162035544  0.8892128268521237  0.7869592897843019  1.0000
  H   H21       1.0  0.8826443256447197  0.3667904415543229  0.9977699786737098  1.0000
  H   H22       1.0  0.11735567366056084  0.633209558173958  0.0022300214313936808  1.0000
  H   H23       1.0  0.5741105734662618  0.5211483088760825  0.07662583995684111  1.0000
  H   H24       1.0  0.4258894256515147  0.4788516918102246  0.9233741601477058  1.0000
  C   C1        1.0  0.18938863976114326  0.8685891896058504  0.4048222056575793  1.0000
  C   C2        1.0  0.8106113595441373  0.1314108101224304  0.5951777944475241  1.0000
  C   C3        1.0  0.10039663338042061  0.8266761765689842  0.4834329362714818  1.0000
  C   C4        1.0  0.89960336592486  0.1733238231592966  0.5165670638336216  1.0000
  C   C5        1.0  0.924418786406909  0.7127025289338044  0.5069076694061365  1.0000
  C   C6        1.0  0.07558121289837164  0.2872974707944765  0.49309233069896685  1.0000
  C   C7        1.0  0.8372638549998919  0.6422221779540952  0.4529845701787249  1.0000
  C   C8        1.0  0.16273614686465745  0.3577778217734908  0.5470154299248444  1.0000
  C   C9        1.0  0.9294708589076485  0.684388152474768  0.3746615596139761  1.0000
  C   C10       1.0  0.07052914295690096  0.3156118472528179  0.6253384404895932  1.0000
  C   C11       1.0  0.10920293297838252  0.7972543071809148  0.3495259489957478  1.0000
  C   C12       1.0  0.890797066326898  0.20274569254736596  0.6504740511093557  1.0000
  C   C13       1.0  0.052522774734295626  0.8026863472489791  0.21456679724120403  1.0000
  C   C14       1.0  0.9474772243834806  0.19731365343732807  0.7854332028633428  1.0000
  C   C15       1.0  0.20776860867222968  0.679059906122378  0.18875840641104416  1.0000
  C   C16       1.0  0.7922313906330509  0.32094009360590275  0.8112415936940593  1.0000
  C   C17       1.0  0.8084675264316327  0.2923989681912116  0.219115023112653  1.0000
  C   C18       1.0  0.19153247287364783  0.7076010315370693  0.7808849769924504  1.0000
  C   C19       1.0  0.9860020953509915  0.20025540694770858  0.180658901262592  1.0000
  C   C20       1.0  0.013997903954289183  0.7997445927805722  0.8193410988425114  1.0000
  C   C21       1.0  0.01848521913014055  0.22494513724195964  0.09969000455093725  1.0000
  C   C22       1.0  0.9815147799876358  0.7750548634443476  0.9003099955536097  1.0000
  C   C23       1.0  0.8677129853614111  0.3416434883915822  0.06065452797937124  1.0000
  C   C24       1.0  0.13228701394386932  0.6583565113366986  0.9393454721257323  1.0000
  C   C25       1.0  0.6958390481498221  0.4285754899172747  0.1034534020359085  1.0000
  C   C26       1.0  0.3041609511554584  0.5714245098110061  0.8965465980691949  1.0000
  C   C27       1.0  0.22184202401096223  0.12739959344447396  0.05830277249931551  1.0000
  C   C28       1.0  0.7781579778535871  0.8726004062831121  0.9416972276042538  1.0000
  N   N1        1.0  0.6673071561224289  0.4047382080262677  0.18114194119139612  1.0000
  N   N2        1.0  0.33269284318285175  0.5952617917020132  0.8188580589137073  1.0000
  N   N3        1.0  0.22121995471434872  0.1454853156203739  0.9814334481052748  1.0000
  N   N4        1.0  0.7787800445909319  0.854514684107907  0.018566551999828623  1.0000
  O   O1        1.0  0.21535751106658768  0.8442895349000604  0.2741316836323286  1.0000
  O   O2        1.0  0.7846424907979618  0.15571046482752562  0.7258683164712406  1.0000
  O   O3        1.0  0.13944108699500188  0.6573186191375036  0.12516789837249945  1.0000
  O   O4        1.0  0.8605589146820433  0.34268138154810873  0.8748321017305133  1.0000
  O   O5        1.0  0.40413860121672  0.6020528188666514  0.23641511242044347  1.0000
  O   O6        1.0  0.5958613980885606  0.3979471808616295  0.7635848876846599  1.0000
  O   O7        1.0  0.38897752278492  0.03412620029897058  0.09706010753230959  1.0000
  O   O8        1.0  0.6110224790796294  0.9658737994286155  0.9029398925712597  1.0000
  Cl  Cl1       1.0  0.3880489159376487  0.013796302216016427  0.37390283067289487  1.0000
  Cl  Cl2       1.0  0.6119510861294915  0.9862036976922391  0.6260971688518144  1.0000
  Cl  Cl3       1.0  0.806871666870585  0.6579441044852731  0.6044304669730705  1.0000
  Cl  Cl4       1.0  0.19312833243469552  0.3420558952430078  0.3955695331320329  1.0000
