data_image0
_chemical_formula_structural       H56C50N4O6S4
_chemical_formula_sum              "H56 C50 N4 O6 S4"
_cell_length_a       8.673831696255117
_cell_length_b       10.153903872695613
_cell_length_c       13.987890232004597
_cell_angle_alpha    74.44999985495988
_cell_angle_beta     76.74260971415075
_cell_angle_gamma    87.88513793914046

_space_group_name_H-M_alt    "P 1"
_space_group_IT_number       1

loop_
  _space_group_symop_operation_xyz
  'x, y, z'

loop_
  _atom_site_type_symbol
  _atom_site_label
  _atom_site_symmetry_multiplicity
  _atom_site_fract_x
  _atom_site_fract_y
  _atom_site_fract_z
  _atom_site_occupancy
  H   H1        1.0  0.5718653887115325  0.11605921948425993  0.02558314147897043  1.0000
  H   H2        1.0  0.428134611709918  0.8839407807017713  0.9744168580614793  1.0000
  H   H3        1.0  0.4336221323577615  0.2295279033373301  0.968256364125801  1.0000
  H   H4        1.0  0.5663778668795684  0.7704720968581575  0.03174363558204995  1.0000
  H   H5        1.0  0.7689972942974481  0.001598379318593293  0.9221498673812083  1.0000
  H   H6        1.0  0.23100270612400234  0.9984016208674382  0.0778501321592413  1.0000
  H   H7        1.0  0.8601399310659588  0.9320338505376806  0.7621699134365149  1.0000
  H   H8        1.0  0.13986006931474856  0.06796614862210973  0.23783008702177025  1.0000
  H   H9        1.0  0.7511671284186691  0.042143728172313724  0.6105851870046416  1.0000
  H   H10       1.0  0.24883287200404608  0.9578562720100383  0.3894148132512433  1.0000
  H   H11       1.0  0.554451128244854  0.227149780237247  0.6196101843681538  1.0000
  H   H12       1.0  0.4455488721765965  0.7728502199487844  0.3803898151722958  1.0000
  H   H13       1.0  0.46215559482568713  0.29482136278693455  0.7814270146210098  1.0000
  H   H14       1.0  0.5378444043708996  0.705178636382312  0.21857298600467642  1.0000
  H   H15       1.0  0.562459967028275  0.3979328819738797  0.26002710774837573  1.0000
  H   H16       1.0  0.4375400322090548  0.602067118221608  0.739972891959475  1.0000
  H   H17       1.0  0.38541434265992086  0.4747466360628094  0.23007091639030428  1.0000
  H   H18       1.0  0.6145856577627942  0.5252533641195427  0.7699290838655806  1.0000
  H   H19       1.0  0.12399729518352996  0.32624466918334305  0.3064572071708141  1.0000
  H   H20       1.0  0.8760027051959125  0.6737553299801267  0.6935427925720359  1.0000
  H   H21       1.0  0.9666795706249639  0.17274211656750038  0.4667486197379831  1.0000
  H   H22       1.0  0.03332042861236604  0.8272578836279874  0.5332513799698677  1.0000
  H   H23       1.0  0.10141661570587451  0.042381116268700225  0.6009996532565879  1.0000
  H   H24       1.0  0.8985833847168406  0.9576188839136519  0.399000346999297  1.0000
  H   H25       1.0  0.39533640252495283  0.0645608517366122  0.5720562555169311  1.0000
  H   H26       1.0  0.6046635978964975  0.9354391484494192  0.42794374402351854  1.0000
  H   H27       1.0  0.5501966063036972  0.21953522280934465  0.41379840353797115  1.0000
  H   H28       1.0  0.4498033941177531  0.7804647773766866  0.5862015960024787  1.0000
  H   H29       1.0  0.004814555555107726  0.8958720930241495  0.011410538900010826  1.0000
  H   H30       1.0  0.9951854448663427  0.10412790716188196  0.988589460640439  1.0000
  H   H31       1.0  0.21736975759789  0.04312511758386382  0.8752660978884408  1.0000
  H   H32       1.0  0.7826302416407045  0.9568748826079444  0.12473390253484519  1.0000
  H   H33       1.0  0.33130102956786794  0.9669864044915261  0.7193074870986751  1.0000
  H   H34       1.0  0.6686989708535824  0.033013595694505224  0.2806925124417746  1.0000
  H   H35       1.0  0.22088426623464055  0.7579673449423875  0.6945183981190245  1.0000
  H   H36       1.0  0.7791157330026893  0.24203265525310028  0.30548160158882626  1.0000
  H   H37       1.0  0.8461936748509692  0.5379788906848709  0.9365033272487635  1.0000
  H   H38       1.0  0.15380632557048116  0.4620211095011604  0.06349667229168605  1.0000
  H   H39       1.0  0.08328440982256143  0.5518952866110306  0.7791568023486293  1.0000
  H   H40       1.0  0.9167155906001537  0.4481047135713214  0.22084319790725557  1.0000
  H   H41       1.0  0.6581227621421967  0.46758512290660137  0.46408941691806527  1.0000
  H   H42       1.0  0.3418772370951331  0.5324148772888865  0.5359105827897855  1.0000
  H   H43       1.0  0.8013545182177282  0.5532788137714717  0.5007939487559072  1.0000
  H   H44       1.0  0.19864548216171446  0.44672118539199807  0.4992060509869427  1.0000
  H   H45       1.0  0.8584845591482977  0.41362994585132407  0.44739333915585605  1.0000
  H   H46       1.0  0.14151544127441745  0.586370054331028  0.5526066611000288  1.0000
  H   H47       1.0  0.7429147863175413  0.6893817156408911  0.33643645055245086  1.0000
  H   H48       1.0  0.2570852140619013  0.31061828352257864  0.6635635491903991  1.0000
  H   H49       1.0  0.0761072260752603  0.5697379741501719  0.30656171823479833  1.0000
  H   H50       1.0  0.9238927743461901  0.4302620260358594  0.6934382813056512  1.0000
  H   H51       1.0  0.017968512255716933  0.7130091079628688  0.35521512944199823  1.0000
  H   H52       1.0  0.982031486981613  0.286990892232619  0.6447848702658525  1.0000
  H   H53       1.0  0.01723395347495198  0.7223063378333776  0.22681120668667668  1.0000
  H   H54       1.0  0.982766045762378  0.2776936623621101  0.773188793021174  1.0000
  H   H55       1.0  0.7816930658662522  0.6016066091974631  0.20167948188747417  1.0000
  H   H56       1.0  0.21830693337107746  0.39839339099802457  0.7983205178203766  1.0000
  C   C1        1.0  0.6162313264044369  0.3908860394963917  0.05913865963536335  1.0000
  C   C2        1.0  0.38376867397500564  0.609113959667078  0.9408613401074866  1.0000
  C   C3        1.0  0.8631710649436889  0.6778792041555419  0.01447851536127648  1.0000
  C   C4        1.0  0.13682893547776145  0.3221207960304895  0.9855214841791731  1.0000
  C   C5        1.0  0.5568021280923283  0.1966919393080308  0.9584568043373392  1.0000
  C   C6        1.0  0.4431978723303868  0.8033080608743212  0.04154319591854561  1.0000
  C   C7        1.0  0.609341721725972  0.15243234810115924  0.8620106665309312  1.0000
  C   C8        1.0  0.3906582786534705  0.8475676510623106  0.1379893332119188  1.0000
  C   C9        1.0  0.7218235905434637  0.050776901923636424  0.85575971382307  1.0000
  C   C10       1.0  0.27817640987925146  0.9492230982587156  0.14424028643281472  1.0000
  C   C11       1.0  0.7730306600350688  0.011756435999426926  0.7655383633611151  1.0000
  C   C12       1.0  0.22696934038638164  0.9882435641866044  0.2344616361793347  1.0000
  C   C13       1.0  0.7126505255923467  0.07442293225308992  0.6804480643748041  1.0000
  C   C14       1.0  0.2873494748291038  0.9255770679329416  0.31955193516564556  1.0000
  C   C15       1.0  0.6014243881652761  0.17691880757536207  0.6859033220284436  1.0000
  C   C16       1.0  0.3985756122574391  0.82308119260699  0.31409667822744114  1.0000
  C   C17       1.0  0.5498209118827064  0.21582575678635277  0.776211393007356  1.0000
  C   C18       1.0  0.4501790884967361  0.7841742423771169  0.2237886067354941  1.0000
  C   C19       1.0  0.4428864902958005  0.3767918390144866  0.2532865013026562  1.0000
  C   C20       1.0  0.5571135089415292  0.6232081611810011  0.7467134984051945  1.0000
  C   C21       1.0  0.3475364058866744  0.28372660373845515  0.34949313021695244  1.0000
  C   C22       1.0  0.6524635945360406  0.7162733964438969  0.6505068700389325  1.0000
  C   C23       1.0  0.1826690032858629  0.26932651332172813  0.3654294165820689  1.0000
  C   C24       1.0  0.8173309971355874  0.7306734868643032  0.6345705829583809  1.0000
  C   C25       1.0  0.09479535938995917  0.1828551546964578  0.45521496785542076  1.0000
  C   C26       1.0  0.9052046398066276  0.8171448444727889  0.5447850327702654  1.0000
  C   C27       1.0  0.170097742973427  0.10896324980609007  0.530463423250116  1.0000
  C   C28       1.0  0.8299022574492881  0.891036750376262  0.46953657700576873  1.0000
  C   C29       1.0  0.3343809405798096  0.12211618421248939  0.514694277042768  1.0000
  C   C30       1.0  0.6656190586587849  0.8778838159793189  0.4853057233805179  1.0000
  C   C31       1.0  0.42215316915879564  0.20886836935624867  0.42504953701671405  1.0000
  C   C32       1.0  0.5778468312626547  0.7911316308297827  0.5749504625237356  1.0000
  C   C33       1.0  0.9892987835419439  0.752273198904033  0.928179108551251  1.0000
  C   C34       1.0  0.010701216879506363  0.24772680128199837  0.07182089098919861  1.0000
  C   C35       1.0  0.05258556883462925  0.870952096719951  0.939626142660094  1.0000
  C   C36       1.0  0.9474144303606927  0.1290479024529749  0.060373857250157134  1.0000
  C   C37       1.0  0.17200857533623348  0.9502995964268345  0.8651657757156965  1.0000
  C   C38       1.0  0.827991423902361  0.04970040376497392  0.1348342247075894  1.0000
  C   C39       1.0  0.233638698002952  0.9086970048738182  0.7767496712171512  1.0000
  C   C40       1.0  0.7663613024197631  0.09130299530853395  0.22325032903873362  1.0000
  C   C41       1.0  0.1735553560362781  0.7919286810501373  0.7627722574723814  1.0000
  C   C42       1.0  0.8264446432010516  0.20807131914535035  0.23722774223546933  1.0000
  C   C43       1.0  0.05237343456635375  0.7119085259447281  0.8379165839812585  1.0000
  C   C44       1.0  0.9476265658550965  0.2880914742413034  0.16208341555919129  1.0000
  C   C45       1.0  0.7824992181046208  0.5030923738458799  0.44380546335607723  1.0000
  C   C46       1.0  0.21750078231682962  0.4969076263401514  0.5561945361843724  1.0000
  C   C47       1.0  0.8221100502485046  0.6016415143398344  0.33797612981643926  1.0000
  C   C48       1.0  0.17788994898882524  0.39835848585565325  0.6620238698914116  1.0000
  C   C49       1.0  0.9933503542746174  0.6545579879205496  0.30457543319874525  1.0000
  C   C50       1.0  0.006649646148097883  0.34544201226180227  0.6954245670571394  1.0000
  N   N1        1.0  0.6779052240656027  0.4936315430386698  0.0775208182656442  1.0000
  N   N2        1.0  0.3220947763138398  0.5063684561247999  0.9224791814772058  1.0000
  N   N3        1.0  0.799791040824543  0.5642398645699517  0.0035910539251022746  1.0000
  N   N4        1.0  0.20020895959817228  0.43576013561240023  0.9964089463307826  1.0000
  O   O1        1.0  0.8160755589109739  0.7199780285263472  0.09307575844692809  1.0000
  O   O2        1.0  0.18392444151174134  0.2800219716560048  0.9069242418089567  1.0000
  O   O3        1.0  0.9963201296174526  0.5966255978612698  0.8242066124845412  1.0000
  O   O4        1.0  0.003679870805262464  0.4033744023210823  0.1757933877713437  1.0000
  O   O5        1.0  0.7859480892258559  0.5309830840790636  0.2674937873787055  1.0000
  O   O6        1.0  0.21405191119559455  0.4690169161069678  0.7325062121617443  1.0000
  S   S1        1.0  0.6834327892184742  0.3432150636651086  0.9449119689809512  1.0000
  S   S2        1.0  0.31656721120297604  0.6567849365209227  0.0550880305594985  1.0000
  S   S3        1.0  0.46236475578686453  0.2933020717378557  0.15076974393315049  1.0000
  S   S4        1.0  0.53763524345173  0.7066979284539526  0.8492302564901355  1.0000
