data_image0
_chemical_formula_structural       H56C88N8F24P4S32
_chemical_formula_sum              "H56 C88 N8 F24 P4 S32"
_cell_length_a       25.787145941623237
_cell_length_b       5.993914539406813
_cell_length_c       17.87982778416714
_cell_angle_alpha    90.0
_cell_angle_beta     110.93887686316252
_cell_angle_gamma    90.0

_space_group_name_H-M_alt    "P 1"
_space_group_IT_number       1

loop_
  _space_group_symop_operation_xyz
  'x, y, z'

loop_
  _atom_site_type_symbol
  _atom_site_label
  _atom_site_symmetry_multiplicity
  _atom_site_fract_x
  _atom_site_fract_y
  _atom_site_fract_z
  _atom_site_occupancy
  H   H1        1.0  0.4368294768871653  0.7096976011307935  0.6528777538596706  1.0000
  H   H2        1.0  0.5631705229151396  0.7096976011307935  0.8471222459792659  1.0000
  H   H3        1.0  0.9368294769724237  0.209697601081311  0.6528777539508139  1.0000
  H   H4        1.0  0.06317052282988116  0.209697601081311  0.8471222458881225  1.0000
  H   H5        1.0  0.5631705229884659  0.2903023989681714  0.3471222458941042  1.0000
  H   H6        1.0  0.4368294771087245  0.2903023989681714  0.1528777543733442  1.0000
  H   H7        1.0  0.06317052290320754  0.7903023990176538  0.3471222458029608  1.0000
  H   H8        1.0  0.93682947704575  0.7903023990176538  0.15287775386565228  1.0000
  H   H9        1.0  0.4305242007940803  0.09294966859089328  0.58196267485248  1.0000
  H   H10       1.0  0.5694757991564573  0.09294966859089328  0.9180373255852916  1.0000
  H   H11       1.0  0.9305242008793387  0.5929496686403757  0.5819626749436233  1.0000
  H   H12       1.0  0.06947579907119893  0.5929496686403757  0.9180373254941483  1.0000
  H   H13       1.0  0.5694757992297836  0.9070503315080716  0.41803732550012995  1.0000
  H   H14       1.0  0.43052420086740667  0.9070503315080716  0.08196267476731836  1.0000
  H   H15       1.0  0.06947579914452529  0.40705033145858915  0.41803732540898664  1.0000
  H   H16       1.0  0.9305242009526652  0.40705033145858915  0.08196267485846169  1.0000
  H   H17       1.0  0.1515900733135854  0.327040512024717  0.3008141047622945  1.0000
  H   H18       1.0  0.8484099267836049  0.327040512024717  0.19918589550515384  1.0000
  H   H19       1.0  0.6515900730109958  0.8270405120741994  0.3008141048532041  1.0000
  H   H20       1.0  0.3484099270861946  0.8270405120741994  0.19918589541424428  1.0000
  H   H21       1.0  0.8484099269498938  0.6729594880742478  0.6991858949917141  1.0000
  H   H22       1.0  0.15159007324025908  0.6729594880742478  0.8008141048474562  1.0000
  H   H23       1.0  0.3484099270128682  0.1729594880247654  0.6991858954994059  1.0000
  H   H24       1.0  0.6515900733255173  0.1729594880247654  0.8008141049385995  1.0000
  H   H25       1.0  0.08707003166219783  0.4172244304716917  0.1961819586332789  1.0000
  H   H26       1.0  0.9129299684349925  0.4172244304716917  0.3038180416341695  1.0000
  H   H27       1.0  0.5870700313596082  0.9172244305211742  0.19618195872418848  1.0000
  H   H28       1.0  0.41292996834973417  0.9172244305211742  0.3038180415430261  1.0000
  H   H29       1.0  0.9129299686012813  0.5827755696272732  0.8038180411207296  1.0000
  H   H30       1.0  0.08707003158887146  0.5827755696272732  0.6961819587184405  1.0000
  H   H31       1.0  0.41292996866425585  0.0827755695777907  0.8038180416284216  1.0000
  H   H32       1.0  0.5870700316741299  0.0827755695777907  0.6961819588095839  1.0000
  H   H33       1.0  0.01685460252538894  0.5260202792801294  0.06803583616982292  1.0000
  H   H34       1.0  0.9831453974235687  0.5260202792801294  0.4319641634987902  1.0000
  H   H35       1.0  0.5168546022227993  0.02602027923064697  0.0680358362607325  1.0000
  H   H36       1.0  0.4831453977261582  0.02602027923064697  0.43196416340788063  1.0000
  H   H37       1.0  0.9831453977380904  0.4739797208188355  0.9319641635841857  1.0000
  H   H38       1.0  0.016854602452062575  0.4739797208188355  0.5680358362549845  1.0000
  H   H39       1.0  0.4831453976528319  0.9739797208683179  0.9319641634930422  1.0000
  H   H40       1.0  0.516854602537321  0.9739797208683179  0.5680358363461279  1.0000
  H   H41       1.0  0.16808739872461434  0.05176754989748449  0.19673161621129157  1.0000
  H   H42       1.0  0.8319126012243432  0.05176754989748449  0.3032683834573216  1.0000
  H   H43       1.0  0.6680873988098727  0.551767549946967  0.1967316163024349  1.0000
  H   H44       1.0  0.33191260113908483  0.551767549946967  0.30326838336617823  1.0000
  H   H45       1.0  0.8319126011510168  0.9482324502014804  0.8032683835424832  1.0000
  H   H46       1.0  0.168087398651288  0.9482324502014804  0.6967316162964532  1.0000
  H   H47       1.0  0.3319126010657585  0.4482324501519979  0.8032683834513399  1.0000
  H   H48       1.0  0.6680873987365463  0.4482324501519979  0.6967316163875965  1.0000
  H   H49       1.0  0.09081136068973876  0.1387717199722233  0.06959784092702657  1.0000
  H   H50       1.0  0.9091886394074516  0.1387717199722233  0.4304021593404218  1.0000
  H   H51       1.0  0.5908113603871491  0.6387717200217057  0.06959784101793613  1.0000
  H   H52       1.0  0.4091886397100412  0.6387717200217057  0.4304021592495122  1.0000
  H   H53       1.0  0.9091886397219733  0.8612282801267416  0.9304021594258172  1.0000
  H   H54       1.0  0.09081136061641239  0.8612282801267416  0.5695978410121882  1.0000
  H   H55       1.0  0.4091886396367149  0.3612282800772591  0.9304021593346739  1.0000
  H   H56       1.0  0.5908113607016707  0.3612282800772591  0.5695978411033316  1.0000
  C   C1        1.0  0.4041290260779443  0.7584812679778249  0.5973827719762985  1.0000
  C   C2        1.0  0.5958709738725932  0.7584812679778249  0.902617228461473  1.0000
  C   C3        1.0  0.9041290260149699  0.2584812679283425  0.5973827714686066  1.0000
  C   C4        1.0  0.09587097417518295  0.2584812679283425  0.9026172283705635  1.0000
  C   C5        1.0  0.5958709739459197  0.24151873212113995  0.4026172283763115  1.0000
  C   C6        1.0  0.40412902615127066  0.24151873212113995  0.0973827718911369  1.0000
  C   C7        1.0  0.0958709738606613  0.7415187321706224  0.4026172282851681  1.0000
  C   C8        1.0  0.9041290262365291  0.7415187321706224  0.09738277198228025  1.0000
  C   C9        1.0  0.40104849672863835  0.9566565843241862  0.5604715347212862  1.0000
  C   C10       1.0  0.5989515030736664  0.9566565843241862  0.9395284651176502  1.0000
  C   C11       1.0  0.9010484968138968  0.45665658427470385  0.5604715348124295  1.0000
  C   C12       1.0  0.09895150298840805  0.45665658427470385  0.9395284650265069  1.0000
  C   C13       1.0  0.5989515031469929  0.043343415774778585  0.4395284650324886  1.0000
  C   C14       1.0  0.40104849680196475  0.043343415774778585  0.06047153463612451  1.0000
  C   C15       1.0  0.09895150306173442  0.543343415824261  0.43952846494134523  1.0000
  C   C16       1.0  0.9010484968872232  0.543343415824261  0.06047153472726786  1.0000
  C   C17       1.0  0.31602739911288585  0.7360807634131924  0.47119819052231066  1.0000
  C   C18       1.0  0.6839726008360717  0.7360807634131924  0.028801809146302478  1.0000
  C   C19       1.0  0.8160273991981443  0.23608076336370987  0.471198190613454  1.0000
  C   C20       1.0  0.18397260075081334  0.23608076336370987  0.028801809055159132  1.0000
  C   C21       1.0  0.6839726007627454  0.26391923668577255  0.5288018092314641  1.0000
  C   C22       1.0  0.3160273990395595  0.26391923668577255  0.9711981906074725  1.0000
  C   C23       1.0  0.183972600677487  0.763919236735255  0.5288018091403208  1.0000
  C   C24       1.0  0.8160273991248178  0.763919236735255  0.9711981906986156  1.0000
  C   C25       1.0  0.2687961599535405  0.6692998362964682  0.4096323855780658  1.0000
  C   C26       1.0  0.7312038401436498  0.6692998362964682  0.09036761468938254  1.0000
  C   C27       1.0  0.768796159890566  0.16929983624698566  0.4096323850703739  1.0000
  C   C28       1.0  0.23120384005839148  0.16929983624698566  0.0903676145982392  1.0000
  C   C29       1.0  0.7312038400703236  0.3307001638024967  0.5903676147745442  1.0000
  C   C30       1.0  0.26879615973198134  0.3307001638024967  0.9096323850643921  1.0000
  C   C31       1.0  0.23120384037291314  0.8307001638519791  0.5903676146836346  1.0000
  C   C32       1.0  0.7687961598172397  0.8307001638519791  0.9096323851555356  1.0000
  C   C33       1.0  0.18282438854279118  0.4578364075693983  0.3203913006071532  1.0000
  C   C34       1.0  0.8171756115543992  0.4578364075693983  0.17960869966029516  1.0000
  C   C35       1.0  0.6828243886280495  0.9578364076188808  0.3203913006982965  1.0000
  C   C36       1.0  0.31717561146914086  0.9578364076188808  0.17960869956915182  1.0000
  C   C37       1.0  0.8171756114810729  0.5421635925295665  0.6796086997454568  1.0000
  C   C38       1.0  0.1828243888573128  0.5421635925295665  0.8203913006925486  1.0000
  C   C39       1.0  0.31717561139581446  0.042163592480084125  0.6796086996543135  1.0000
  C   C40       1.0  0.682824388554723  0.042163592480084125  0.8203913007834581  1.0000
  C   C41       1.0  0.17972416093439897  0.6557923047045991  0.28192346009423946  1.0000
  C   C42       1.0  0.8202758390145586  0.6557923047045991  0.21807653957437362  1.0000
  C   C43       1.0  0.6797241610196574  0.15579230465511676  0.2819234601853829  1.0000
  C   C44       1.0  0.320275839077533  0.15579230465511676  0.21807654008206548  1.0000
  C   C45       1.0  0.8202758389412322  0.3442076953943657  0.7180765396595353  1.0000
  C   C46       1.0  0.1797241608610726  0.3442076953943657  0.7819234601794012  1.0000
  C   C47       1.0  0.3202758388559738  0.8442076954438481  0.7180765395683919  1.0000
  C   C48       1.0  0.679724160946331  0.8442076954438481  0.7819234602705446  1.0000
  C   C49       1.0  0.13544950588622787  0.7224041953772201  0.20797181791607103  1.0000
  C   C50       1.0  0.8645504940627298  0.7224041953772201  0.2920281817525421  1.0000
  C   C51       1.0  0.6354495059714863  0.22240419532773772  0.2079718180072144  1.0000
  C   C52       1.0  0.3645504939774713  0.22240419532773772  0.29202818166139877  1.0000
  C   C53       1.0  0.8645504939894034  0.27759580472174467  0.7920281818377038  1.0000
  C   C54       1.0  0.13544950581290152  0.27759580472174467  0.7079718180012327  1.0000
  C   C55       1.0  0.36455049390414496  0.7775958047712271  0.7920281817465604  1.0000
  C   C56       1.0  0.6354495058981598  0.7775958047712271  0.7079718180923761  1.0000
  C   C57       1.0  0.09096944753072732  0.5774788641451923  0.1704021433070728  1.0000
  C   C58       1.0  0.9090305524182303  0.5774788641451923  0.3295978563615403  1.0000
  C   C59       1.0  0.5909694472281377  0.07747886409570988  0.1704021433979824  1.0000
  C   C60       1.0  0.40903055233297186  0.07747886409570988  0.329597856270397  1.0000
  C   C61       1.0  0.9090305527327518  0.4225211359537725  0.8295978564469356  1.0000
  C   C62       1.0  0.09096944745740095  0.4225211359537725  0.6704021433922345  1.0000
  C   C63       1.0  0.4090305526474935  0.9225211360032549  0.8295978563557924  1.0000
  C   C64       1.0  0.5909694475426593  0.9225211360032549  0.6704021434833778  1.0000
  C   C65       1.0  0.05088154154254306  0.6404905249750075  0.09803110619073346  1.0000
  C   C66       1.0  0.9491184581667994  0.6404905249750075  0.4019688940764811  1.0000
  C   C67       1.0  0.5508815416278015  0.14049052492552505  0.09803110628187682  1.0000
  C   C68       1.0  0.44911845846938897  0.14049052492552505  0.4019688939855715  1.0000
  C   C69       1.0  0.949118458481321  0.35950947512395737  0.9019688941618765  1.0000
  C   C70       1.0  0.050881541857064685  0.35950947512395737  0.5980311062761289  1.0000
  C   C71       1.0  0.4491184583960626  0.8595094751734398  0.9019688940707332  1.0000
  C   C72       1.0  0.5508815417940902  0.8595094751734398  0.598031105768437  1.0000
  C   C73       1.0  0.09233612259759712  0.9772233657137988  0.09860571997158259  1.0000
  C   C74       1.0  0.9076638773513604  0.9772233657137988  0.4013942796970305  1.0000
  C   C75       1.0  0.5923361222950074  0.4772233656643164  0.09860572006249217  1.0000
  C   C76       1.0  0.40766387765395007  0.4772233656643164  0.40139427960612095  1.0000
  C   C77       1.0  0.907663877665882  0.02277663438516606  0.9013942797824259  1.0000
  C   C78       1.0  0.09233612252427077  0.02277663438516606  0.5986057200567443  1.0000
  C   C79       1.0  0.4076638775806237  0.5227766344346485  0.9013942796912826  1.0000
  C   C80       1.0  0.5923361226095292  0.5227766344346485  0.5986057201478875  1.0000
  C   C81       1.0  0.1352589686078905  0.9291874923113571  0.17070460422510983  1.0000
  C   C82       1.0  0.8647410313410672  0.9291874923113571  0.3292953954435033  1.0000
  C   C83       1.0  0.6352589686931489  0.4291874922618747  0.1707046043162532  1.0000
  C   C84       1.0  0.3647410312558087  0.4291874922618747  0.3292953953523599  1.0000
  C   C85       1.0  0.8647410312677407  0.0708125077876077  0.8292953955286649  1.0000
  C   C86       1.0  0.13525896853456412  0.0708125077876077  0.6707046043102715  1.0000
  C   C87       1.0  0.3647410311824823  0.5708125078370901  0.8292953954375215  1.0000
  C   C88       1.0  0.6352589686198225  0.5708125078370901  0.6707046044014148  1.0000
  N   N1        1.0  0.051160217117891114  0.8349401325457129  0.06102479022919038  1.0000
  N   N2        1.0  0.9488397828310663  0.8349401325457129  0.43897520943942275  1.0000
  N   N3        1.0  0.5511602172031494  0.33494013249623045  0.06102479032033373  1.0000
  N   N4        1.0  0.4488397827458081  0.33494013249623045  0.43897520934827944  1.0000
  N   N5        1.0  0.94883978275774  0.165059867553252  0.9389752095245844  1.0000
  N   N6        1.0  0.05116021704456479  0.165059867553252  0.5610247903143522  1.0000
  N   N7        1.0  0.44883978306032973  0.6650598676027344  0.9389752094336749  1.0000
  N   N8        1.0  0.5511602171298231  0.6650598676027344  0.5610247904054954  1.0000
  F   F1        1.0  1.5726082061877596e-10  0.908467470498652  0.25000000004269773  1.0000
  F   F2        1.0  0.49999999985467114  0.4084674704491695  0.2500000001336073  1.0000
  F   F3        1.0  8.393447582356397e-11  0.0915325296003129  0.7500000001278594  1.0000
  F   F4        1.0  0.5000000001691928  0.5915325296497953  0.7500000002190026  1.0000
  F   F5        1.0  0.0006615293604836028  0.1806509056612542  0.34169691051707457  1.0000
  F   F6        1.0  0.9993384707367067  0.1806509056612542  0.15830308975037374  1.0000
  F   F7        1.0  0.5006615294457419  0.6806509057107366  0.34169691060821794  1.0000
  F   F8        1.0  0.4993384706514484  0.6806509057107366  0.1583030896592304  1.0000
  F   F9        1.0  0.9993384705151476  0.8193490944377108  0.6583030892367002  1.0000
  F   F10       1.0  0.0006615292871572321  0.8193490944377108  0.8416969106022363  1.0000
  F   F11       1.0  0.49933847096597  0.3193490943882282  0.6583030897446258  1.0000
  F   F12       1.0  0.5006615293724156  0.3193490943882282  0.8416969106933796  1.0000
  F   F13       1.0  0.06866454548315844  0.17876305091697886  0.2850253498681363  1.0000
  F   F14       1.0  0.931335454465799  0.17876305091697886  0.2149746498004768  1.0000
  F   F15       1.0  0.5686645455684168  0.6787630509664613  0.2850253499592797  1.0000
  F   F16       1.0  0.4313354543805407  0.6787630509664613  0.21497464970933347  1.0000
  F   F17       1.0  0.9313354543924728  0.821236949181986  0.7149746498856384  1.0000
  F   F18       1.0  0.06866454540983206  0.821236949181986  0.785025349953298  1.0000
  F   F19       1.0  0.4313354543072144  0.32123694913250356  0.7149746497944952  1.0000
  F   F20       1.0  0.5686645454950904  0.32123694913250356  0.7850253500444413  1.0000
  F   F21       1.0  1.5726082061877596e-10  0.4527688862024677  0.25000000004269773  1.0000
  F   F22       1.0  0.49999999985467114  0.9527688862519502  0.2500000001336073  1.0000
  F   F23       1.0  8.393447582356397e-11  0.5472311138964971  0.7500000001278594  1.0000
  F   F24       1.0  0.5000000001691928  0.04723111384701473  0.7500000002190026  1.0000
  P   P1        1.0  1.5726082061877596e-10  0.18180462581434204  0.25000000004269773  1.0000
  P   P2        1.0  0.49999999985467114  0.6818046258638244  0.2500000001336073  1.0000
  P   P3        1.0  8.393447582356397e-11  0.8181953742846229  0.7500000001278594  1.0000
  P   P4        1.0  0.5000000001691928  0.3181953742351404  0.7500000002190026  1.0000
  S   S1        1.0  0.35219893628662086  0.5669405874339178  0.5524958793298307  1.0000
  S   S2        1.0  0.6478010640517647  0.5669405874339178  0.9475041211081747  1.0000
  S   S3        1.0  0.8521989363718792  0.06694058738443547  0.5524958794209741  1.0000
  S   S4        1.0  0.1478010639665065  0.06694058738443547  0.9475041210170314  1.0000
  S   S5        1.0  0.6478010637372432  0.43305941266504694  0.4475041210227793  1.0000
  S   S6        1.0  0.35219893635994715  0.43305941266504694  0.052495879244669044  1.0000
  S   S7        1.0  0.14780106403983284  0.9330594127145293  0.44750412093186975  1.0000
  S   S8        1.0  0.8521989360573575  0.9330594127145293  0.05249587933557862  1.0000
  S   S9        1.0  0.34526220098295013  0.9983395326474245  0.47287184478278993  1.0000
  S   S10       1.0  0.6547377985781595  0.9983395326474245  0.027128154885589388  1.0000
  S   S11       1.0  0.8452622010682085  0.49833953259794195  0.4728718448739333  1.0000
  S   S12       1.0  0.15473779902898185  0.49833953259794195  0.02712815539351503  1.0000
  S   S13       1.0  0.6547377988926811  0.0016604674515404364  0.5271281549709848  1.0000
  S   S14       1.0  0.3452622012974718  0.0016604674515404364  0.9728718448681855  1.0000
  S   S15       1.0  0.15473779880742267  0.5016604675010229  0.5271281548798414  1.0000
  S   S16       1.0  0.8452622013827301  0.5016604675010229  0.9728718449593288  1.0000
  S   S17       1.0  0.2348461314160316  0.8403402879511991  0.32774793916501627  1.0000
  S   S18       1.0  0.7651538686811588  0.8403402879511991  0.17225206110243213  1.0000
  S   S19       1.0  0.7348461313530571  0.34034028790171666  0.3277479386573244  1.0000
  S   S20       1.0  0.2651538685959004  0.34034028790171666  0.1722520610112888  1.0000
  S   S21       1.0  0.7651538686078323  0.1596597121477658  0.6722520611875938  1.0000
  S   S22       1.0  0.23484613119447242  0.1596597121477658  0.8277479386513427  1.0000
  S   S23       1.0  0.26515386891042203  0.6596597121972482  0.6722520610966842  1.0000
  S   S24       1.0  0.7348461312797309  0.6596597121972482  0.8277479387424861  1.0000
  S   S25       1.0  0.2381945481805637  0.4087855981080582  0.4067317729413816  1.0000
  S   S26       1.0  0.7618054517683938  0.4087855981080582  0.09326822672723148  1.0000
  S   S27       1.0  0.738194548265822  0.9087855981575407  0.406731773032525  1.0000
  S   S28       1.0  0.2618054518313683  0.9087855981575407  0.09326822723492334  1.0000
  S   S29       1.0  0.7618054516950674  0.5912144019909067  0.5932682268123931  1.0000
  S   S30       1.0  0.23819454810723734  0.5912144019909067  0.9067317730265433  1.0000
  S   S31       1.0  0.2618054516098091  0.09121440194142427  0.5932682267212498  1.0000
  S   S32       1.0  0.7381945481924957  0.09121440194142427  0.9067317731176867  1.0000
