data_image0
_chemical_formula_structural       H52C72N12O16Cl16
_chemical_formula_sum              "H52 C72 N12 O16 Cl16"
_cell_length_a       6.934327353627681
_cell_length_b       10.101650771059242
_cell_length_c       27.578595763681125
_cell_angle_alpha    90.0
_cell_angle_beta     96.26829451409375
_cell_angle_gamma    90.0

_space_group_name_H-M_alt    "P 1"
_space_group_IT_number       1

loop_
  _space_group_symop_operation_xyz
  'x, y, z'

loop_
  _atom_site_type_symbol
  _atom_site_label
  _atom_site_symmetry_multiplicity
  _atom_site_fract_x
  _atom_site_fract_y
  _atom_site_fract_z
  _atom_site_occupancy
  H   H1        1.0  0.6808272452837587  0.36878573160269396  0.605477582346693  1.0000
  H   H2        1.0  0.8191727553266006  0.8687857320452335  0.8945224177736699  1.0000
  H   H3        1.0  0.31917275555007113  0.6312142682924478  0.3945224176117332  1.0000
  H   H4        1.0  0.18082724550722917  0.13121426784990828  0.10547758218475634  1.0000
  H   H5        1.0  0.613634271580636  0.878797255141017  0.6184856434615025  1.0000
  H   H6        1.0  0.8863657290297234  0.37879725568841477  0.8815143566588606  1.0000
  H   H7        1.0  0.38636572925319396  0.12120274475412468  0.38151435649692383  1.0000
  H   H8        1.0  0.11363427196514445  0.6212027442067269  0.11848564366434593  1.0000
  H   H9        1.0  0.6381200327187656  0.9833003926900203  0.5376608523623851  1.0000
  H   H10       1.0  0.8618799678915936  0.48330039224748095  0.9623391477579777  1.0000
  H   H11       1.0  0.36187996667325517  0.016699607205121293  0.462339147596708  1.0000
  H   H12       1.0  0.13812003294223618  0.5166996076476608  0.037660852200448465  1.0000
  H   H13       1.0  0.11894833596434504  0.00883042900825272  0.6356363759962889  1.0000
  H   H14       1.0  0.38105166369095583  0.5088304294507922  0.8643636240334678  1.0000
  H   H15       1.0  0.8810516634276758  0.991169570886889  0.3643636239628043  1.0000
  H   H16       1.0  0.6189483371428739  0.49116957044434956  0.1356363759249584  1.0000
  H   H17       1.0  0.1823849661870308  0.4999263728724664  0.6482501170290658  1.0000
  H   H18       1.0  0.3176150349100791  0.9999263733150058  0.8517498830000241  1.0000
  H   H19       1.0  0.8176150346467991  0.5000736270226753  0.3517498829293605  1.0000
  H   H20       1.0  0.6823849659237509  7.362658013587334e-05  0.14825011695840215  1.0000
  H   H21       1.0  0.16045561421355684  0.3647748821961715  0.7229797412131267  1.0000
  H   H22       1.0  0.3395443854417441  0.8647748816487738  0.7770202588166301  1.0000
  H   H23       1.0  0.8395443866202729  0.6352251186889074  0.2770202587452995  1.0000
  H   H24       1.0  0.6604556139502767  0.13522511824636796  0.22297974114246316  1.0000
  H   H25       1.0  0.2571706667685198  0.7838899551632066  0.5936546627910341  1.0000
  H   H26       1.0  0.2428293328867811  0.2838899547206671  0.9063453372387226  1.0000
  H   H27       1.0  0.7428293340653099  0.21611004473193515  0.40634533716739213  1.0000
  H   H28       1.0  0.7571706665052398  0.7161100451744746  0.09365466272037051  1.0000
  H   H29       1.0  0.27975829472844377  0.780755465492398  0.6558959844910174  1.0000
  H   H30       1.0  0.22024170492685724  0.2807554650498586  0.8441040155387394  1.0000
  H   H31       1.0  0.7202417046635772  0.21924453440274366  0.34410401546807584  1.0000
  H   H32       1.0  0.7797582960680107  0.7192445348452831  0.1558959847844671  1.0000
  H   H33       1.0  0.9609182374764466  0.7202323219135698  0.5446565940489141  1.0000
  H   H34       1.0  0.5390817631339128  0.2202323224609675  0.9553434060714489  1.0000
  H   H35       1.0  0.03908176335738332  0.279767677981572  0.4553434059095121  1.0000
  H   H36       1.0  0.46091823641914614  0.7797676784241114  0.04465659425242459  1.0000
  H   H37       1.0  0.6338514614178172  0.6212206719696346  0.543094213507941  1.0000
  H   H38       1.0  0.866148539192542  0.12122067251703238  0.956905786612422  1.0000
  H   H39       1.0  0.3661485394160125  0.37877932792550706  0.4569057864504853  1.0000
  H   H40       1.0  0.13385146164128783  0.8787793273781093  0.04309421334600424  1.0000
  H   H41       1.0  0.49080732014071415  0.5774527859062324  0.6205005504585077  1.0000
  H   H42       1.0  0.009192679514586768  0.07745278645363017  0.879499449571249  1.0000
  H   H43       1.0  0.5091926792513066  0.42254721398890926  0.3794994495005854  1.0000
  H   H44       1.0  0.990807319877434  0.9225472134415116  0.12050055038784416  1.0000
  H   H45       1.0  0.6813927230547827  0.6330745553312591  0.6999236965860998  1.0000
  H   H46       1.0  0.8186072761137677  0.1330745548887196  0.8000763035349301  1.0000
  H   H47       1.0  0.3186072763372382  0.36692544555381984  0.30007630337299335  1.0000
  H   H48       1.0  0.18139272327825318  0.866925445006422  0.19992369642416305  1.0000
  H   H49       1.0  0.00845020950848259  0.7325026975986126  0.7018800774047553  1.0000
  H   H50       1.0  0.4915497901468184  0.23250269814601038  0.7981199226250014  1.0000
  H   H51       1.0  0.9915497898835384  0.26749730229652907  0.29811992255433784  1.0000
  H   H52       1.0  0.5084502108480494  0.7674973017491312  0.20188007769820507  1.0000
  C   C1        1.0  0.6587726516805812  0.18081983642050498  0.5675907371800437  1.0000
  C   C2        1.0  0.841227348929778  0.6808198358731072  0.9324092629403192  1.0000
  C   C3        1.0  0.3412273493142868  0.8191801634746366  0.43240926314316275  1.0000
  C   C4        1.0  0.15877265046224273  0.31918016402203453  0.06759073701877392  1.0000
  C   C5        1.0  0.6635395596965072  0.26202632718042884  0.6086302133879067  1.0000
  C   C6        1.0  0.8364604394720431  0.7620263276229683  0.8913697867331232  1.0000
  C   C7        1.0  0.3364604396955136  0.7379736727147128  0.3913697865711865  1.0000
  C   C8        1.0  0.1635395599199778  0.23797367227217342  0.10863021322596998  1.0000
  C   C9        1.0  0.6459411801393087  0.20352229616669085  0.653675319132679  1.0000
  C   C10       1.0  0.8540588204710506  0.7035222956192931  0.846324680987684  1.0000
  C   C11       1.0  0.3540588206945211  0.7964777037284508  0.3463246808257472  1.0000
  C   C12       1.0  0.14594117892097028  0.29647770427584863  0.15367531897140926  1.0000
  C   C13       1.0  0.6245635075053833  0.06497051470837775  0.6569531527744982  1.0000
  C   C14       1.0  0.875436493104976  0.5649705151509172  0.8430468473458647  1.0000
  C   C15       1.0  0.3754364933284466  0.935029485186764  0.343046847183928  1.0000
  C   C16       1.0  0.12456350628704485  0.4350294847442245  0.15695315261322848  1.0000
  C   C17       1.0  0.6250783555502865  0.9858678740440884  0.6153427473454843  1.0000
  C   C18       1.0  0.8749216450600728  0.485867874591486  0.8846572527748785  1.0000
  C   C19       1.0  0.37492164528354327  0.014132125851053416  0.38465725261294187  1.0000
  C   C20       1.0  0.12507835433194814  0.5141321253036557  0.11534274718421461  1.0000
  C   C21       1.0  0.640943350517539  0.043627309039687596  0.5702878593421487  1.0000
  C   C22       1.0  0.8590566486510113  0.543627309482227  0.9297121407788812  1.0000
  C   C23       1.0  0.35905664887448185  0.9563726908554541  0.42971214061694446  1.0000
  C   C24       1.0  0.14094335090204763  0.45637269041291467  0.07028785954499223  1.0000
  C   C25       1.0  0.13500505727091686  0.18134259850362203  0.6828690729077777  1.0000
  C   C26       1.0  0.36499494238438407  0.6813425979562242  0.8171309271219791  1.0000
  C   C27       1.0  0.8649949421211041  0.8186574013915197  0.3171309270513155  1.0000
  C   C28       1.0  0.6350050584494457  0.3186574019389174  0.18286907283644713  1.0000
  C   C29       1.0  0.12992425749700315  0.1166160023443847  0.6380476228216044  1.0000
  C   C30       1.0  0.3700757436001067  0.616616001796987  0.8619523772074854  1.0000
  C   C31       1.0  0.8700757433368267  0.883383997550757  0.36195237713682177  1.0000
  C   C32       1.0  0.629924257233723  0.38338399809815477  0.13804762275094087  1.0000
  C   C33       1.0  0.1460640514815632  0.19245250247313253  0.5965731412426328  1.0000
  C   C34       1.0  0.3539359481737377  0.692452502915672  0.9034268587871238  1.0000
  C   C35       1.0  0.8539359479104577  0.807547497422009  0.4034268587164603  1.0000
  C   C36       1.0  0.6460640512182831  0.3075474969794697  0.09657314117196933  1.0000
  C   C37       1.0  0.16782101174648315  0.33112323577676606  0.6002083581366328  1.0000
  C   C38       1.0  0.3321789879088178  0.8311232352293684  0.8997916418931239  1.0000
  C   C39       1.0  0.8321789876455378  0.6688767651083128  0.39979164182246035  1.0000
  C   C40       1.0  0.667821011483203  0.1688767646657734  0.1002083580659692  1.0000
  C   C41       1.0  0.1682340762947901  0.39286423278161514  0.6456971205892345  1.0000
  C   C42       1.0  0.33176592336051086  0.8928642332241545  0.8543028794405222  1.0000
  C   C43       1.0  0.8317659230972309  0.6071357671135266  0.35430287936985866  1.0000
  C   C44       1.0  0.668234077634357  0.1071357666709871  0.14569712088268424  1.0000
  C   C45       1.0  0.1529736785069791  0.3183708042267599  0.6873258230204827  1.0000
  C   C46       1.0  0.3470263211483219  0.8183708046692993  0.8126741770092741  1.0000
  C   C47       1.0  0.8470263208850417  0.6816291956683819  0.3126741769386105  1.0000
  C   C48       1.0  0.6529736782436991  0.18162919621577955  0.18732582294981906  1.0000
  C   C49       1.0  0.00813591319396027  0.7332559497325906  0.623442227807474  1.0000
  C   C50       1.0  0.49186408646134067  0.23325594929005108  0.8765577722222827  1.0000
  C   C51       1.0  0.9918640861980605  0.26674405016255115  0.3765577721516191  1.0000
  C   C52       1.0  0.5081359129306803  0.7667440506050905  0.12344222773681049  1.0000
  C   C53       1.0  0.8993172150305624  0.7020450222173306  0.5787267827733462  1.0000
  C   C54       1.0  0.600682784137988  0.2020450217747911  0.9212732173476836  1.0000
  C   C55       1.0  0.10068278436145855  0.29795497767781115  0.421273217185747  1.0000
  C   C56       1.0  0.3993172152540328  0.7979549781203505  0.07872678261140945  1.0000
  C   C57       1.0  0.7152756187529483  0.6463644059747419  0.577926403788727  1.0000
  C   C58       1.0  0.7847243802545639  0.1463644055322024  0.9220735959675226  1.0000
  C   C59       1.0  0.28472438063907257  0.353635594910337  0.4220735961703662  1.0000
  C   C60       1.0  0.2152756191374569  0.8536355943629393  0.07792640399157051  1.0000
  C   C61       1.0  0.634897000186834  0.6208493930484957  0.6213915480209137  1.0000
  C   C62       1.0  0.8651029989817163  0.12084939260595634  0.8786084521001161  1.0000
  C   C63       1.0  0.3651029992051868  0.37915060684664587  0.37860845193817944  1.0000
  C   C64       1.0  0.13489700041030456  0.8791506072891854  0.12139154785897699  1.0000
  C   C65       1.0  0.7423299880492467  0.6518751468686446  0.6658411555309668  1.0000
  C   C66       1.0  0.7576700125611127  0.15187514741604233  0.8341588445893962  1.0000
  C   C67       1.0  0.2576700113427743  0.34812485302649715  0.3341588444281265  1.0000
  C   C68       1.0  0.24232998843375522  0.8481248524790994  0.16584115573381028  1.0000
  C   C69       1.0  0.9263076877063239  0.7077567946105421  0.6671168610943531  1.0000
  C   C70       1.0  0.5736923127429971  0.20775679515793982  0.8328831386612295  1.0000
  C   C71       1.0  0.0736923131275058  0.2922432052845996  0.33288313886407317  1.0000
  C   C72       1.0  0.42630768664902363  0.7922432057271391  0.16711686129786352  1.0000
  N   N1        1.0  0.6760297481193879  0.24256032657750154  0.5202601041366259  1.0000
  N   N2        1.0  0.8239702524909714  0.742560327020041  0.9797398959837371  1.0000
  N   N3        1.0  0.3239702527144419  0.7574396733176402  0.4797398958218004  1.0000
  N   N4        1.0  0.17602974834285842  0.25743967287510067  0.020260103974689157  1.0000
  N   N5        1.0  0.1229146338670326  0.10192022703355065  0.7267046026359965  1.0000
  N   N6        1.0  0.3770853657882683  0.6019202274760901  0.7732953973937603  1.0000
  N   N7        1.0  0.8770853656860264  0.898079772861591  0.273295397687877  1.0000
  N   N8        1.0  0.6229146336037525  0.3980797724190516  0.22670460256533287  1.0000
  N   N9        1.0  0.1897177881322842  0.7916480782438942  0.624514114002727  1.0000
  N   N10       1.0  0.31028221152301677  0.29164807879129184  0.8754858860270298  1.0000
  N   N11       1.0  0.8102822112597367  0.2083519216512476  0.37548588595636617  1.0000
  N   N12       1.0  0.6897177878690042  0.7083519211038498  0.1245141139320634  1.0000
  O   O1        1.0  0.6574091635817724  0.17068229134783344  0.48332470979836223  1.0000
  O   O2        1.0  0.8425908369887775  0.6706822917903729  0.016675290089400396  1.0000
  O   O3        1.0  0.3425908372520574  0.8293177085473082  0.516675290160064  1.0000
  O   O4        1.0  0.15740916384505244  0.329317709094706  0.9833247098690259  1.0000
  O   O5        1.0  0.7088413168855958  0.36317728984559894  0.5193962451092263  1.0000
  O   O6        1.0  0.7911586837247635  0.8631772902881384  0.9806037550111366  1.0000
  O   O7        1.0  0.29115868394823397  0.6368227100495428  0.4806037548492  1.0000
  O   O8        1.0  0.2088413158282955  0.13682270960700335  0.01939624531273676  1.0000
  O   O9        1.0  0.14079851871358223  0.15929051562641505  0.7669335215326096  1.0000
  O   O10       1.0  0.3592014809417187  0.6592905160689545  0.7330664784971471  1.0000
  O   O11       1.0  0.8592014821202476  0.8407094842687266  0.2330664784258166  1.0000
  O   O12       1.0  0.6407985186113403  0.34070948382618715  0.2669335218267263  1.0000
  O   O13       1.0  0.09635643457254306  0.9807937855449246  0.7217257198454108  1.0000
  O   O14       1.0  0.40364356508275795  0.48079378510238513  0.7782742801843461  1.0000
  O   O15       1.0  0.9036435648194779  0.019206214350217136  0.2782742801136825  1.0000
  O   O16       1.0  0.5963564343092629  0.5192062147927565  0.2217257197747471  1.0000
  Cl  Cl1       1.0  0.6508120068059658  0.30103784905257897  0.7046866546681402  1.0000
  Cl  Cl2       1.0  0.8491879938043936  0.8010378494951185  0.7953133454522229  1.0000
  Cl  Cl3       1.0  0.3491879940278641  0.6989621508425627  0.29531334529028613  1.0000
  Cl  Cl4       1.0  0.1508120070294362  0.19896215138996048  0.20468665450620338  1.0000
  Cl  Cl5       1.0  0.596898294227823  0.9914696733224915  0.7117769628995751  1.0000
  Cl  Cl6       1.0  0.9031017063825362  0.4914696728799519  0.7882230372207878  1.0000
  Cl  Cl7       1.0  0.4031017066060067  0.008530326572650297  0.28822303705885105  1.0000
  Cl  Cl8       1.0  0.09689829300948466  0.5085303270151897  0.2117769627383054  1.0000
  Cl  Cl9       1.0  0.13879325672301504  0.11444212002577259  0.5409053267021261  1.0000
  Cl  Cl10      1.0  0.3612067429322859  0.6144421194783748  0.9590946733276308  1.0000
  Cl  Cl11      1.0  0.8612067426690058  0.8855578798693691  0.45909467325696707  1.0000
  Cl  Cl12      1.0  0.6387932564597351  0.38555788041676686  0.04090532663146249  1.0000
  Cl  Cl13      1.0  0.1992783200691456  0.4261110196297793  0.550416051017079  1.0000
  Cl  Cl14      1.0  0.30072167942511724  0.9261110200723187  0.9495839486478975  1.0000
  Cl  Cl15      1.0  0.8007216793228754  0.5738889802653624  0.44958394894201414  1.0000
  Cl  Cl16      1.0  0.6992783199669036  0.07388897982282293  0.05041605131119569  1.0000
