data_image0
_chemical_formula_structural       H24C26N4F8S2I4
_chemical_formula_sum              "H24 C26 N4 F8 S2 I4"
_cell_length_a       7.868699026723339
_cell_length_b       9.730835279043408
_cell_length_c       12.240313649216422
_cell_angle_alpha    99.97785278540887
_cell_angle_beta     100.89905864696462
_cell_angle_gamma    99.45350937444832

_space_group_name_H-M_alt    "P 1"
_space_group_IT_number       1

loop_
  _space_group_symop_operation_xyz
  'x, y, z'

loop_
  _atom_site_type_symbol
  _atom_site_label
  _atom_site_symmetry_multiplicity
  _atom_site_fract_x
  _atom_site_fract_y
  _atom_site_fract_z
  _atom_site_occupancy
  H   H1        1.0  0.8622596960348834  0.9018481662078449  0.49990397792578134  1.0000
  H   H2        1.0  0.1377403042284298  0.09815183378768731  0.5000960226364173  1.0000
  H   H3        1.0  0.6425542476253515  0.6743793134187415  0.4952230984169178  1.0000
  H   H4        1.0  0.3574457523512996  0.32562068635058455  0.5047769012941743  1.0000
  H   H5        1.0  0.7563261148245009  0.4571342375432913  0.36960139997294744  1.0000
  H   H6        1.0  0.24367388515215038  0.5428657622260349  0.6303985997381448  1.0000
  H   H7        1.0  0.9996310242673994  0.3571034567017123  0.34951108679136483  1.0000
  H   H8        1.0  0.00036897599591371327  0.64289654329382  0.6504889137708337  1.0000
  H   H9        1.0  0.84107591373695  0.35877769140098137  0.22365764673351068  1.0000
  H   H10       1.0  0.158924086526363  0.6412223085945508  0.776342353828688  1.0000
  H   H11       1.0  0.05368041166744063  0.3317118193576409  0.21416542966328703  1.0000
  H   H12       1.0  0.9463195883092106  0.6682881804116853  0.7858345700478052  1.0000
  H   H13       1.0  0.27010084737504503  0.5553693603430285  0.422767582290324  1.0000
  H   H14       1.0  0.7298991528118738  0.4446306404678041  0.577232417419625  1.0000
  H   H15       1.0  0.31861587207357545  0.5200989540027087  0.2854300873632819  1.0000
  H   H16       1.0  0.6813841279030758  0.47990104576661746  0.7145699123478104  1.0000
  H   H17       1.0  0.3091274516266476  0.6961695047015761  0.34877517678556974  1.0000
  H   H18       1.0  0.6908725470767832  0.303830495065265  0.6512248229190826  1.0000
  H   H19       1.0  0.09502036353056388  0.5288861384557967  0.11032801565103104  1.0000
  H   H20       1.0  0.9049796351728671  0.4711138613110446  0.8896719840536214  1.0000
  H   H21       1.0  0.8827739833691858  0.5632725780939808  0.1219559960516976  1.0000
  H   H22       1.0  0.11722601660746547  0.4367274216753454  0.8780440036593947  1.0000
  H   H23       1.0  0.07361261725041535  0.7028323611437358  0.17083967714166512  1.0000
  H   H24       1.0  0.9263873830128978  0.2971676388517963  0.8291603234205334  1.0000
  C   C1        1.0  0.5352284765445051  0.9245701754720779  0.7728451613078099  1.0000
  C   C2        1.0  0.4647715236424137  0.07542982533875482  0.22715483840213935  1.0000
  C   C3        1.0  0.5798705407776032  0.8050387638736292  0.8096043369674464  1.0000
  C   C4        1.0  0.42012945948570984  0.19496123612190305  0.19039566359475213  1.0000
  C   C5        1.0  0.6794406025779535  0.8144935403001204  0.9184331184896043  1.0000
  C   C6        1.0  0.3205593976853597  0.1855064596954117  0.08156688207259445  1.0000
  C   C7        1.0  0.738575112558583  0.9455261074666461  0.9949593850101187  1.0000
  C   C8        1.0  0.26142488770473027  0.05447389252888606  0.005040615552079878  1.0000
  C   C9        1.0  0.693767443691224  0.06555434069970043  0.9583530008895801  1.0000
  C   C10       1.0  0.3062325562854274  0.9344456590696257  0.041646998821512266  1.0000
  C   C11       1.0  0.5941686993562886  0.05566680823588754  0.8492284329469  1.0000
  C   C12       1.0  0.40583130062036255  0.9443331915334385  0.15077156676419232  1.0000
  C   C13       1.0  0.9871498953320805  0.7768019293787488  0.39362614609399404  1.0000
  C   C14       1.0  0.012850104644570785  0.22319807039057735  0.6063738536170982  1.0000
  C   C15       1.0  0.7519612181438918  0.6770116790570109  0.45309123220118197  1.0000
  C   C16       1.0  0.2480387821194212  0.3229883209385212  0.5469087683610165  1.0000
  C   C17       1.0  0.8086428127681746  0.5703952050554028  0.39091259542648193  1.0000
  C   C18       1.0  0.1913571872084765  0.42960479471392343  0.6090874042846103  1.0000
  C   C19       1.0  0.05326516214249941  0.5496369334881145  0.2811012805454096  1.0000
  C   C20       1.0  0.9467348365609315  0.45036306627872674  0.7188987191592426  1.0000
  C   C21       1.0  0.9809718345989215  0.3904055234904321  0.2675019913091618  1.0000
  C   C22       1.0  0.019028165664391694  0.6095944765051  0.7324980092530369  1.0000
  C   C23       1.0  0.2502044076039102  0.5835058057084984  0.33885987946540364  1.0000
  C   C24       1.0  0.7497955923727408  0.4164941940608276  0.6611401202456886  1.0000
  C   C25       1.0  0.02372046310829592  0.5891282861025621  0.16404744938898327  1.0000
  C   C26       1.0  0.9762795370786229  0.4108717147082705  0.8359525503209658  1.0000
  N   N1        1.0  0.9543924903222192  0.631837013522535  0.35443923453495574  1.0000
  N   N2        1.0  0.04560751015136164  0.3681629875145037  0.6455607660260999  1.0000
  N   N3        1.0  0.8632557178447783  0.8018475080997611  0.45382400167668535  1.0000
  N   N4        1.0  0.13674428213187295  0.19815249166956495  0.5461759980344069  1.0000
  F   F1        1.0  0.5258030919473019  0.6745288920913801  0.7380279101467689  1.0000
  F   F2        1.0  0.4741969067561291  0.3254711076754611  0.2619720895578834  1.0000
  F   F3        1.0  0.720201155140876  0.6936610598118342  0.9478746965721774  1.0000
  F   F4        1.0  0.27979884483577516  0.3063389399574918  0.052125303138914884  1.0000
  F   F5        1.0  0.7489820356703387  0.19572537691177455  0.028931836112056714  1.0000
  F   F6        1.0  0.2510179643063125  0.8042746228575516  0.9710681635990355  1.0000
  F   F7        1.0  0.5558249241937783  0.1760914473160705  0.8184787299153957  1.0000
  F   F8        1.0  0.4441750757828728  0.8239085524532557  0.18152126979569658  1.0000
  S   S1        1.0  0.1466116139195851  0.9062408619283734  0.374340426806465  1.0000
  S   S2        1.0  0.8533883860570661  0.09375913784095279  0.6256595729046273  1.0000
  I   I1        1.0  0.38243201601554105  0.9071399429665772  0.6071195769094072  1.0000
  I   I2        1.0  0.6175679844580396  0.09286005807046135  0.39288042365164827  1.0000
  I   I3        1.0  0.8998401192721647  0.958439994808328  0.156607438921714  1.0000
  I   I4        1.0  0.10015988070448649  0.04156000496099813  0.8433925607893782  1.0000
