data_image0
_chemical_formula_structural       H24C16N4S2I4
_chemical_formula_sum              "H24 C16 N4 S2 I4"
_cell_length_a       7.51727951246723
_cell_length_b       9.48877526393928
_cell_length_c       9.758952238496425
_cell_angle_alpha    113.68370866209249
_cell_angle_beta     97.07919286972091
_cell_angle_gamma    91.94517327113964

_space_group_name_H-M_alt    "P 1"
_space_group_IT_number       1

loop_
  _space_group_symop_operation_xyz
  'x, y, z'

loop_
  _atom_site_type_symbol
  _atom_site_label
  _atom_site_symmetry_multiplicity
  _atom_site_fract_x
  _atom_site_fract_y
  _atom_site_fract_z
  _atom_site_occupancy
  H   H1        1.0  0.1600183245830075  0.9585118788149974  0.4328872932939667  1.0000
  H   H2        1.0  0.8399816760771504  0.04148812089772415  0.5671127066996877  1.0000
  H   H3        1.0  0.21495026445238175  0.6975425177625046  0.9737716226513504  1.0000
  H   H4        1.0  0.7850497362077763  0.3024574819502171  0.026228377342304186  1.0000
  H   H5        1.0  0.4028166426048513  0.842181498003542  0.2632084539410756  1.0000
  H   H6        1.0  0.5971833567263175  0.15781850171690365  0.7367915460582936  1.0000
  H   H7        1.0  0.02297499053332383  0.6674514052241762  0.7838524980276462  1.0000
  H   H8        1.0  0.9770250101268342  0.33254859448854535  0.21614750196600818  1.0000
  H   H9        1.0  0.9651409659535064  0.5123580498093039  0.8351703542406833  1.0000
  H   H10       1.0  0.03485903470665149  0.48764194990341775  0.1648296457529711  1.0000
  H   H11       1.0  0.8064111401213505  0.5674659536806509  0.720508032123999  1.0000
  H   H12       1.0  0.19358886053880747  0.43253404603207074  0.2794919678696554  1.0000
  H   H13       1.0  0.7271348497527563  0.536486354497124  0.0016918735691728705  1.0000
  H   H14       1.0  0.2728651509595042  0.4635136462705048  0.9983081264255266  1.0000
  H   H15       1.0  0.6211850114235026  0.7106011916031537  0.07930468147074035  1.0000
  H   H16       1.0  0.37881498923665535  0.2893988081095679  0.9206953185229141  1.0000
  H   H17       1.0  0.5801579972289937  0.5940954184168699  0.8808226993363203  1.0000
  H   H18       1.0  0.4198420021542775  0.4059045823584831  0.11917730066409399  1.0000
  H   H19       1.0  0.8899047052117091  0.9219853084071987  0.9007020941166828  1.0000
  H   H20       1.0  0.1100952941194597  0.07801469131324697  0.0992979058826865  1.0000
  H   H21       1.0  0.6713910050740848  0.823245259692132  0.8259585980372832  1.0000
  H   H22       1.0  0.32860899563817564  0.17675474107549669  0.17404140195741613  1.0000
  H   H23       1.0  0.7231714753724491  0.9458889566662227  0.022222032335203142  1.0000
  H   H24       1.0  0.27682852395871954  0.054111043054222964  0.9777779676641662  1.0000
  C   C1        1.0  0.5711963015771182  0.48934105856825244  0.4626982795036967  1.0000
  C   C2        1.0  0.4288036990830398  0.5106589411444692  0.5373017204899578  1.0000
  C   C3        1.0  0.9675421769254728  0.8697775437148039  0.23639669053265908  1.0000
  C   C4        1.0  0.03245782373468514  0.13022245599791774  0.7636033094609953  1.0000
  C   C5        1.0  0.1670432972872132  0.7602728577649676  0.07990362418611227  1.0000
  C   C6        1.0  0.8329567034250472  0.23972714300266126  0.9200963758085872  1.0000
  C   C7        1.0  0.26037680319154505  0.8330809696867035  0.2224206467255752  1.0000
  C   C8        1.0  0.7396231974686129  0.16691903002601807  0.7775793532680793  1.0000
  C   C9        1.0  0.8392592379902845  0.7238322206221554  0.9537599797975526  1.0000
  C   C10       1.0  0.16074076134088428  0.27616777909829054  0.04624002020181678  1.0000
  C   C11       1.0  0.9155508121618822  0.611821090395047  0.8166408882379965  1.0000
  C   C12       1.0  0.08444918849827575  0.3881789093176747  0.18335911175565786  1.0000
  C   C13       1.0  0.6824649432367406  0.6366525552155993  0.9822986723762523  1.0000
  C   C14       1.0  0.3175350574234175  0.36334744449712236  0.01770132761740207  1.0000
  C   C15       1.0  0.7774406213074675  0.8631433042404554  0.9247498614827846  1.0000
  C   C16       1.0  0.2225593793526904  0.13685669547226634  0.07525013851086981  1.0000
  N   N1        1.0  0.9857533331053354  0.7814034628104005  0.0884262081748953  1.0000
  N   N2        1.0  0.014246666225833326  0.21859653691004524  0.911573791824474  1.0000
  N   N3        1.0  0.1361100100309506  0.8989653690144888  0.31598999525655874  1.0000
  N   N4        1.0  0.8638899893523206  0.10103463176086425  0.6840100047438558  1.0000
  S   S1        1.0  0.7800522175107414  0.9371445990054478  0.31340111425400125  1.0000
  S   S2        1.0  0.21994778182042737  0.06285540071499805  0.6865988857453681  1.0000
  I   I1        1.0  0.684425391576599  0.6621367075731521  0.4032692510507199  1.0000
  I   I2        1.0  0.31557460908355894  0.3378632921395694  0.5967307489429345  1.0000
  I   I3        1.0  0.6952297268423117  0.2782472370056192  0.391369769287498  1.0000
  I   I4        1.0  0.30477027381784627  0.7217527627071024  0.6086302307061564  1.0000
