data_image0
_chemical_formula_structural       H44C56N4F6S4
_chemical_formula_sum              "H44 C56 N4 F6 S4"
_cell_length_a       7.331463481187325
_cell_length_b       11.106993178707262
_cell_length_c       14.57513559296033
_cell_angle_alpha    103.85070714573364
_cell_angle_beta     97.13105655975279
_cell_angle_gamma    94.29931947057185

_space_group_name_H-M_alt    "P 1"
_space_group_IT_number       1

loop_
  _space_group_symop_operation_xyz
  'x, y, z'

loop_
  _atom_site_type_symbol
  _atom_site_label
  _atom_site_symmetry_multiplicity
  _atom_site_fract_x
  _atom_site_fract_y
  _atom_site_fract_z
  _atom_site_occupancy
  H   H1        1.0  0.01575420743563234  0.7467961246123651  0.49709504823482564  1.0000
  H   H2        1.0  0.9842457929379318  0.2532038754289289  0.5029049518678895  1.0000
  H   H3        1.0  0.9458614057556773  0.5861697967556417  0.48058503084331244  1.0000
  H   H4        1.0  0.05413859324321144  0.4138302032850264  0.5194149691680654  1.0000
  H   H5        1.0  0.9295408033133205  0.6505944625228472  0.3802701257602932  1.0000
  H   H6        1.0  0.07045919691092237  0.3494055365856275  0.6197298741621224  1.0000
  H   H7        1.0  0.4787589280445934  0.6470879839899646  0.7235361694319659  1.0000
  H   H8        1.0  0.5212410723289708  0.3529120160513294  0.2764638306707493  1.0000
  H   H9        1.0  0.8605656254121932  0.08818014715607583  0.12018922033745022  1.0000
  H   H10       1.0  0.13943437496137095  0.911819852885218  0.8798107797652649  1.0000
  H   H11       1.0  0.14846575141543777  0.4782241358449086  0.06224783248956279  1.0000
  H   H12       1.0  0.8515342489581263  0.5217758641963853  0.9377521676131524  1.0000
  H   H13       1.0  0.9448820573028088  0.27786617386366075  0.2542735079143017  1.0000
  H   H14       1.0  0.055117943081716296  0.722133826178728  0.7457264915032191  1.0000
  H   H15       1.0  0.5981199628380746  0.722967137644257  0.8951776682945067  1.0000
  H   H16       1.0  0.4018800375354896  0.2770328623970369  0.10482233180820834  1.0000
  H   H17       1.0  0.45544966671022474  0.026230243731805124  0.7024264655040159  1.0000
  H   H18       1.0  0.5445503322886642  0.9737697563088631  0.2975735345073622  1.0000
  H   H19       1.0  0.5703483572448801  0.10250516953521  0.8768953229703412  1.0000
  H   H20       1.0  0.42965164312868404  0.897494830506084  0.1231046771323739  1.0000
  H   H21       1.0  0.2631042073317823  0.1070191285180928  0.4021540893613864  1.0000
  H   H22       1.0  0.7368957930417818  0.8929808715232012  0.5978459107413288  1.0000
  H   H23       1.0  0.1196839242563007  0.07744010188081428  0.48478401585132  1.0000
  H   H24       1.0  0.8803160761172635  0.9225598981604799  0.5152159842513951  1.0000
  H   H25       1.0  0.642447535827055  0.9497951163803992  0.9731858443270197  1.0000
  H   H26       1.0  0.3575524645465091  0.050204883660894886  0.026814155775695524  1.0000
  H   H27       1.0  0.9211901956383768  0.0927880898321508  0.9569444568563296  1.0000
  H   H28       1.0  0.07880980336051212  0.9072119102085175  0.04305554315504845  1.0000
  H   H29       1.0  0.056732592985824754  0.29093190576834577  0.9268898225632836  1.0000
  H   H30       1.0  0.9432674073877394  0.7090680942729483  0.07311017753943153  1.0000
  H   H31       1.0  0.8982933381888227  0.8510929588915142  0.2112632734885531  1.0000
  H   H32       1.0  0.10170666218474142  0.14890704114977987  0.788736726614162  1.0000
  H   H33       1.0  0.10120378158101871  0.9423328062801365  0.20142876591508277  1.0000
  H   H34       1.0  0.8987962187925455  0.05766719376115765  0.7985712341876323  1.0000
  H   H35       1.0  0.8612289043181203  0.9891228051092829  0.36102638158910016  1.0000
  H   H36       1.0  0.13877109590612255  0.010877193999192005  0.6389736183333156  1.0000
  H   H37       1.0  0.959469402183089  0.10084549723576952  0.3081888233260488  1.0000
  H   H38       1.0  0.0405305981904751  0.8991545028055244  0.6918111767766664  1.0000
  H   H39       1.0  0.5243710726326635  0.6885142350771191  0.135516297970752  1.0000
  H   H40       1.0  0.4756289263662254  0.31148576496354924  0.864483702040626  1.0000
  H   H41       1.0  0.32477506421135677  0.6778752431396389  0.9815553877795392  1.0000
  H   H42       1.0  0.6752249347875322  0.3221247569010294  0.01844461223183871  1.0000
  H   H43       1.0  0.7007407869760115  0.510697562102956  0.15311940222460332  1.0000
  H   H44       1.0  0.29925921339755257  0.48930243793833805  0.8468805978781118  1.0000
  C   C1        1.0  0.20950043985453695  0.62237279335547  0.4350666812658879  1.0000
  C   C2        1.0  0.7904995605190273  0.37762720668582406  0.5649333188368273  1.0000
  C   C3        1.0  0.38636610596827864  0.790898765220917  0.5983824044685429  1.0000
  C   C4        1.0  0.6136338930306102  0.20910123481975115  0.4016175955428352  1.0000
  C   C5        1.0  0.45572850644364504  0.832115742018272  0.7013486741249984  1.0000
  C   C6        1.0  0.5442714939299191  0.16788425802302206  0.29865132597771665  1.0000
  C   C7        1.0  0.18895529725694005  0.7166427809843277  0.2967728876096774  1.0000
  C   C8        1.0  0.8110447031166241  0.2833572190569663  0.7032271124930377  1.0000
  C   C9        1.0  0.30992407032705405  0.8452868037964854  0.4539888064808989  1.0000
  C   C10       1.0  0.6900759300465101  0.15471319624480875  0.5460111936218162  1.0000
  C   C11       1.0  0.3093034952040688  0.7142303335790273  0.3898361157786497  1.0000
  C   C12       1.0  0.6906965037948203  0.2857696664616409  0.6101638842327283  1.0000
  C   C13       1.0  0.11696271154653047  0.5009443796259221  0.2452376292697854  1.0000
  C   C14       1.0  0.8830372888270338  0.4990556204153721  0.7547623708329297  1.0000
  C   C15       1.0  0.22171101452432043  0.9145569279872251  0.39948832246168564  1.0000
  C   C16       1.0  0.7782889858492437  0.08544307205406897  0.6005116776410294  1.0000
  C   C17       1.0  0.01293236086894205  0.654211137940743  0.4488278155912912  1.0000
  C   C18       1.0  0.9870676381409078  0.34578886210101983  0.5511721837348925  1.0000
  C   C19       1.0  0.14754648055099848  0.836911110544218  0.30510061165818514  1.0000
  C   C20       1.0  0.8524535184478904  0.16308888949645015  0.6948993883531928  1.0000
  C   C21       1.0  0.4967303634562949  0.7470657609391347  0.7565968561616898  1.0000
  C   C22       1.0  0.5032696369172692  0.2529342391021593  0.24340314394102533  1.0000
  C   C23       1.0  0.05612234816232666  0.38902961922439644  0.16684626571939531  1.0000
  C   C24       1.0  0.9438776522221983  0.6109703808179923  0.8331537336981256  1.0000
  C   C25       1.0  0.9258288332552586  0.17295030444060056  0.10743173710192765  1.0000
  C   C26       1.0  0.07417116711830558  0.8270496956006935  0.8925682630007875  1.0000
  C   C27       1.0  0.08491711823032722  0.3923718856684783  0.07383100189979247  1.0000
  C   C28       1.0  0.915082882143237  0.6076281143728156  0.9261689982029225  1.0000
  C   C29       1.0  0.9741003349855614  0.2787785140130091  0.1828755021168925  1.0000
  C   C30       1.0  0.025899665388002785  0.7212214860282848  0.8171244979858227  1.0000
  C   C31       1.0  0.5642241916329258  0.789587906588907  0.8535708176497961  1.0000
  C   C32       1.0  0.4357758087406382  0.21041209345238707  0.1464291824529188  1.0000
  C   C33       1.0  0.4839576212600503  0.9609297004368879  0.7458948524295221  1.0000
  C   C34       1.0  0.5160423791135138  0.03907029960440629  0.254105147673193  1.0000
  C   C35       1.0  0.5489309052452338  0.002683021331146801  0.8430864989208736  1.0000
  C   C36       1.0  0.4510690951283303  0.9973169787101472  0.15691350118184158  1.0000
  C   C37       1.0  0.5081336388426803  0.6935405988866623  0.37031097273000757  1.0000
  C   C38       1.0  0.49186636153088387  0.30645940115463166  0.6296890273727076  1.0000
  C   C39       1.0  0.15435355864129463  0.04025124888811728  0.41303764369256335  1.0000
  C   C40       1.0  0.8456464403575944  0.959748751152551  0.5869623563188145  1.0000
  C   C41       1.0  0.5897867738427941  0.9170980903311943  0.8972482915996929  1.0000
  C   C42       1.0  0.41021322653077014  0.08290190971009964  0.10275170850302232  1.0000
  C   C43       1.0  0.958337903755175  0.17612930043869265  0.015522587784289433  1.0000
  C   C44       1.0  0.04166209661838914  0.8238706996026014  0.9844774123184257  1.0000
  C   C45       1.0  0.0358163496402311  0.28645604165182253  0.99871065238632  1.0000
  C   C46       1.0  0.964183650733333  0.7135439583894715  0.0012893477163952003  1.0000
  C   C47       1.0  0.02506120797639041  0.9074010715295715  0.2520525165571251  1.0000
  C   C48       1.0  0.9749387923971736  0.09259892851172236  0.74794748354559  1.0000
  C   C49       1.0  0.9855551449590233  0.0172265075079582  0.33304067991776837  1.0000
  C   C50       1.0  0.014444854039865628  0.9827734925327102  0.6669593200936096  1.0000
  C   C51       1.0  0.5143928785573824  0.6062128301605119  0.07586706269073692  1.0000
  C   C52       1.0  0.48560712044150656  0.3937871698801564  0.924132937320641  1.0000
  C   C53       1.0  0.40229994354788845  0.6002500290649507  0.9896900122640949  1.0000
  C   C54       1.0  0.5977000568256756  0.39974997097634335  0.010309987838620143  1.0000
  C   C55       1.0  0.6122909534483494  0.5059483590047308  0.0861927372384823  1.0000
  C   C56       1.0  0.3877090455505395  0.49405164103593746  0.9138072627728957  1.0000
  N   N1        1.0  0.3659496483247495  0.8744737854189314  0.5495733458764175  1.0000
  N   N2        1.0  0.6340503520597757  0.1255262146234573  0.4504266535411034  1.0000
  N   N3        1.0  0.12029466529474694  0.6111431562322889  0.22821265463785942  1.0000
  N   N4        1.0  0.8797053337041418  0.38885684380837926  0.7717873453735186  1.0000
  F   F1        1.0  0.5228490334345792  0.5847687237897538  0.30525603881258223  1.0000
  F   F2        1.0  0.4771509669389849  0.4152312762515404  0.6947439612901329  1.0000
  F   F3        1.0  0.6272936640350982  0.6952509893440045  0.4503573030913204  1.0000
  F   F4        1.0  0.37270633633846595  0.3047490106972895  0.5496426970113948  1.0000
  F   F5        1.0  0.5801700277410072  0.7865103635604886  0.33355380233293624  1.0000
  F   F6        1.0  0.4198299724832355  0.21348963554798597  0.6664461975894795  1.0000
  S   S1        1.0  0.18918889597147706  0.46406316420548727  0.3558217690840618  1.0000
  S   S2        1.0  0.810811104402087  0.5359368358358068  0.6441782310186532  1.0000
  S   S3        1.0  0.33502616887188064  0.6255302258204662  0.553592070310241  1.0000
  S   S4        1.0  0.6649738315016837  0.37446977422082794  0.44640792979247396  1.0000
