data_image0
_chemical_formula_structural       H16C14N16O12
_chemical_formula_sum              "H16 C14 N16 O12"
_cell_length_a       6.214048198170622
_cell_length_b       7.8559248218530335
_cell_length_c       12.658273161964102
_cell_angle_alpha    87.81946373685341
_cell_angle_beta     79.91459238992773
_cell_angle_gamma    86.06570819635088

_space_group_name_H-M_alt    "P 1"
_space_group_IT_number       1

loop_
  _space_group_symop_operation_xyz
  'x, y, z'

loop_
  _atom_site_type_symbol
  _atom_site_label
  _atom_site_symmetry_multiplicity
  _atom_site_fract_x
  _atom_site_fract_y
  _atom_site_fract_z
  _atom_site_occupancy
  H   H1        1.0  0.6867197098076123  0.3198608763940512  0.763601072537955  1.0000
  H   H2        1.0  0.3132802891197537  0.6801391243011549  0.23639892714699437  1.0000
  H   H3        1.0  0.10635964202997468  0.5406754805969017  0.9072133695129166  1.0000
  H   H4        1.0  0.8936403586403779  0.45932451882640224  0.09278663005420032  1.0000
  H   H5        1.0  0.2700346899080479  0.35721179672556785  0.5398213967666898  1.0000
  H   H6        1.0  0.7299653107623049  0.6427882026977361  0.4601786028004272  1.0000
  H   H7        1.0  0.3852431442119166  0.15695230431403032  0.48567806599271646  1.0000
  H   H8        1.0  0.6147568564584361  0.8430476951092736  0.5143219335744005  1.0000
  H   H9        1.0  0.4884371163645189  0.346012508135768  0.4247819084923718  1.0000
  H   H10       1.0  0.5115628826748212  0.6539874912891186  0.5752180920066658  1.0000
  H   H11       1.0  0.8934544871533548  0.2957152539389494  0.4728427487150562  1.0000
  H   H12       1.0  0.10654551177713827  0.7042847467622951  0.527157251759468  1.0000
  H   H13       1.0  0.8018750941858482  0.08851313051495584  0.4846742459219967  1.0000
  H   H14       1.0  0.1981249048534919  0.9114868689099308  0.5153257545770409  1.0000
  H   H15       1.0  0.9091761505317582  0.17355170555994365  0.5942374789557068  1.0000
  H   H16       1.0  0.09082384839873511  0.8264482951413009  0.4057625215188176  1.0000
  C   C1        1.0  0.5780119202558418  0.08502120533735794  0.19523252026021293  1.0000
  C   C2        1.0  0.4219880803087912  0.9149787953683421  0.8047674800719659  1.0000
  C   C3        1.0  0.5082017872088027  0.19178732215638802  0.11219029358381885  1.0000
  C   C4        1.0  0.4917982118274103  0.8082126772624603  0.8878097061256438  1.0000
  C   C5        1.0  0.8576938157055859  0.3783542721044925  0.8946234639610201  1.0000
  C   C6        1.0  0.14230618496476682  0.6216457273188115  0.10537653560609685  1.0000
  C   C7        1.0  0.6262267101341408  0.25586120653385186  0.00988812871860946  1.0000
  C   C8        1.0  0.37377329053933905  0.7441387928954905  0.9901118716380826  1.0000
  C   C9        1.0  0.42089025551084364  0.28737307977944565  0.5025910171625976  1.0000
  C   C10       1.0  0.5791097435253693  0.7126269196394026  0.4974089825468651  1.0000
  C   C11       1.0  0.5877082955695866  0.27679450782566517  0.5749645670214157  1.0000
  C   C12       1.0  0.41229170346662636  0.7232054915931831  0.4250354326880469  1.0000
  C   C13       1.0  0.8121141161512584  0.20226557837977177  0.5308565831198298  1.0000
  C   C14       1.0  0.18788588452222127  0.7977344210495706  0.46914341723686226  1.0000
  N   N1        1.0  0.4146982760084001  0.062243390343618914  0.2739850134742047  1.0000
  N   N2        1.0  0.5853017245562329  0.9377566103620812  0.7260149868579739  1.0000
  N   N3        1.0  0.2984240213074237  0.23321403077788488  0.14270061938668924  1.0000
  N   N4        1.0  0.7015759777287892  0.7667859686409634  0.8572993803227734  1.0000
  N   N5        1.0  0.7909390916687119  0.9974092031566357  0.19772821107022975  1.0000
  N   N6        1.0  0.2090609073706282  0.0025907962682510666  0.8022717894288078  1.0000
  N   N7        1.0  0.5602640443569643  0.2324184021384392  0.9172127002554247  1.0000
  N   N8        1.0  0.4397359563165155  0.7675815972909031  0.08278730010126725  1.0000
  N   N9        1.0  0.7110926860681408  0.3106861314380896  0.8441351534810911  1.0000
  N   N10       1.0  0.2889073146053392  0.6893138679912526  0.1558648468756008  1.0000
  N   N11       1.0  0.8080818923806188  0.34691270115655787  0.0007790027980244525  1.0000
  N   N12       1.0  0.19191810829286104  0.6530872982727846  0.9992209975586674  1.0000
  N   N13       1.0  0.03825034911131277  0.4667593670764001  0.852788320871971  1.0000
  N   N14       1.0  0.96174965155904  0.5332406323469038  0.14721167869514587  1.0000
  N   N15       1.0  0.07368757667716908  0.5308025774350535  0.7500335643588969  1.0000
  N   N16       1.0  0.9263124222533242  0.46919742326619096  0.24996643611562747  1.0000
  O   O1        1.0  0.240189290340295  0.15210439170815956  0.24236583925166882  1.0000
  O   O2        1.0  0.7598107103300578  0.8478956077151444  0.7576341603154481  1.0000
  O   O3        1.0  0.8266616156920576  0.9353603583334766  0.2846457299460738  1.0000
  O   O4        1.0  0.1733383833441553  0.06463964108537167  0.715354269763389  1.0000
  O   O5        1.0  0.9174239243107192  0.9906528120650333  0.11085522510503724  1.0000
  O   O6        1.0  0.08257607635963353  0.009347187358270583  0.8891447744620797  1.0000
  O   O7        1.0  0.2152145470287575  0.6372085431815018  0.7303716058012051  1.0000
  O   O8        1.0  0.784785453641595  0.3627914562418022  0.26962839376591174  1.0000
  O   O9        1.0  0.9676793303014253  0.4784372837237338  0.6847224764380939  1.0000
  O   O10       1.0  0.032320670368927454  0.5215627156995701  0.3152775231290231  1.0000
  O   O11       1.0  0.539493112681168  0.3307683666045783  0.66731834014935  1.0000
  O   O12       1.0  0.4605068878803379  0.6692316340950833  0.3326816593932537  1.0000
