data_image0
_chemical_formula_structural       H22C16N4O13
_chemical_formula_sum              "H22 C16 N4 O13"
_cell_length_a       3.841466690896869
_cell_length_b       9.66989606109762
_cell_length_c       14.76143195115841
_cell_angle_alpha    75.52519220999983
_cell_angle_beta     80.6984735532311
_cell_angle_gamma    83.27553454911983

_space_group_name_H-M_alt    "P 1"
_space_group_IT_number       1

loop_
  _space_group_symop_operation_xyz
  'x, y, z'

loop_
  _atom_site_type_symbol
  _atom_site_label
  _atom_site_symmetry_multiplicity
  _atom_site_fract_x
  _atom_site_fract_y
  _atom_site_fract_z
  _atom_site_occupancy
  H   H1        1.0  0.003995560480790755  0.975574646254603  0.6512245156553247  1.0000
  H   H2        1.0  0.996004440547979  0.024425353034492423  0.34877548402582326  1.0000
  H   H3        1.0  0.6455415626965033  0.29674470994769003  0.7692854365544493  1.0000
  H   H4        1.0  0.3544584380376484  0.7032552904122554  0.23071456295343232  1.0000
  H   H5        1.0  0.9661806449415165  0.12222067461534457  0.9857843964887402  1.0000
  H   H6        1.0  0.0338193557926353  0.8777793257446009  0.014215603019141446  1.0000
  H   H7        1.0  0.7969008177381822  0.49690404535896504  0.9404612643958917  1.0000
  H   H8        1.0  0.20309918299596966  0.5030959550009804  0.05953873511198987  1.0000
  H   H9        1.0  0.08556424949420127  0.7301321230679967  0.890988655131915  1.0000
  H   H10       1.0  0.9144357511178371  0.26986787730674816  0.10901134505536415  1.0000
  H   H11       1.0  0.2140807779111786  0.7184244271039573  0.607211017639041  1.0000
  H   H12       1.0  0.7859192227008598  0.2815755732707875  0.39278898254823824  1.0000
  H   H13       1.0  0.92597699548162  0.4916944563633417  0.642022260472396  1.0000
  H   H14       1.0  0.07402300250331113  0.5083055439772586  0.35797773980067904  1.0000
  H   H15       1.0  0.43310825043675744  0.402994939269785  0.515272083261448  1.0000
  H   H16       1.0  0.5668917505920124  0.5970050600193104  0.4847279164196998  1.0000
  H   H17       1.0  0.7232439961487575  0.17640845251977896  0.2662352823931245  1.0000
  H   H18       1.0  0.27675600446328097  0.8235915478549658  0.7337647177941549  1.0000
  H   H19       1.0  0.35308297628067026  0.7063652739678388  0.11122626534183944  1.0000
  H   H20       1.0  0.646917021826374  0.29363472635796223  0.888773734251838  1.0000
  H   H21       1.0  0.5316928624369227  0.9948750832519031  0.8267765817726966  1.0000
  H   H22       1.0  0.46830713817511577  0.005124917122841708  0.17322341841458266  1.0000
  C   C1        1.0  0.8891941978941869  0.5425580275571029  0.8663732988021521  1.0000
  C   C2        1.0  0.11080580271785172  0.4574419728176419  0.13362670138512725  1.0000
  C   C3        1.0  0.043834614689695274  0.6696581731562083  0.841121390535666  1.0000
  C   C4        1.0  0.9561653859223432  0.3303418272185365  0.15887860965161327  1.0000
  C   C5        1.0  0.11463617282532511  0.6647687594239524  0.6791908937792696  1.0000
  C   C6        1.0  0.8853638277867133  0.33523124095079243  0.32080910640800975  1.0000
  C   C7        1.0  0.956597829646227  0.5387821459934934  0.6998296487635549  1.0000
  C   C8        1.0  0.043402170965811476  0.4612178543812515  0.30017035142372445  1.0000
  C   C9        1.0  0.8426842955525927  0.4711251914351276  0.7958888098879744  1.0000
  C   C10       1.0  0.1573157054761769  0.5288748078539677  0.20411118979317358  1.0000
  C   C11       1.0  0.22626821622751145  0.13933227830020078  0.582762751814678  1.0000
  C   C12       1.0  0.7737317848012581  0.8606677209888945  0.41723724786647  1.0000
  C   C13       1.0  0.37970369017882616  0.12706799175403946  0.6754417251855933  1.0000
  C   C14       1.0  0.6202963108499436  0.8729320075350558  0.32455827449555463  1.0000
  C   C15       1.0  0.48137703491780626  0.9644284096730847  0.966741679255917  1.0000
  C   C16       1.0  0.5186229630671246  0.03557159066751569  0.033258321017158  1.0000
  N   N1        1.0  0.15612013816207437  0.7285773951058975  0.7489770740788546  1.0000
  N   N2        1.0  0.8438798627445819  0.27142260419799724  0.25102292628169104  1.0000
  N   N3        1.0  0.6955998288971372  0.34665131027560336  0.8196735596492719  1.0000
  N   N4        1.0  0.30440017171490125  0.6533486900991414  0.1803264405380073  1.0000
  O   O1        1.0  0.28397067568598705  0.23461285037329146  0.5117599376791819  1.0000
  O   O2        1.0  0.7160293224210573  0.7653871499525094  0.48824006191449554  1.0000
  O   O3        1.0  0.024074791023644022  0.03372815883611842  0.5859121477145984  1.0000
  O   O4        1.0  0.9759252070834005  0.9662718414896827  0.4140878518790789  1.0000
  O   O5        1.0  0.3724824015954481  0.002190553461678411  0.7330956886058567  1.0000
  O   O6        1.0  0.6275175965115961  0.9978094468641227  0.2669043109878207  1.0000
  O   O7        1.0  0.5006897113914089  0.23541268258863413  0.6843652259903121  1.0000
  O   O8        1.0  0.49931028922062953  0.7645873177861107  0.3156347741969672  1.0000
  O   O9        1.0  0.49999999913977433  0.4999999996348752  0.5000000002231707  1.0000
  O   O10       1.0  0.6745522926306067  0.989556328768554  0.8806719255880259  1.0000
  O   O11       1.0  0.3254477081035451  0.010443671591391377  0.11932807391985575  1.0000
  O   O12       1.0  0.27639448509991077  0.8469686642877943  0.9893182144917136  1.0000
  O   O13       1.0  0.7236055130071335  0.15303133603800673  0.010681785101963819  1.0000
