data_image0
_chemical_formula_structural       H56C54N4O4
_chemical_formula_sum              "H56 C54 N4 O4"
_cell_length_a       9.328246502514263
_cell_length_b       9.839834791781612
_cell_length_c       12.976481885559537
_cell_angle_alpha    72.39293016015084
_cell_angle_beta     76.69527669895362
_cell_angle_gamma    75.05000157256573

_space_group_name_H-M_alt    "P 1"
_space_group_IT_number       1

loop_
  _space_group_symop_operation_xyz
  'x, y, z'

loop_
  _atom_site_type_symbol
  _atom_site_label
  _atom_site_symmetry_multiplicity
  _atom_site_fract_x
  _atom_site_fract_y
  _atom_site_fract_z
  _atom_site_occupancy
  H   H1        1.0  0.4486177617806499  0.7491038121000876  0.5787926180757977  1.0000
  H   H2        1.0  0.5513822381018627  0.25089618821308757  0.42120738215239134  1.0000
  H   H3        1.0  0.4974059895184388  0.8294629915060217  0.21188015393789894  1.0000
  H   H4        1.0  0.5025940105933906  0.1705370077182419  0.7881198465040794  1.0000
  H   H5        1.0  0.07680083499601387  0.8786389245156551  0.7068871790024158  1.0000
  H   H6        1.0  0.9231991651158156  0.12136107470860848  0.29311282143956263  1.0000
  H   H7        1.0  0.0045377156375612585  0.8328038204728628  0.9078863763636276  1.0000
  H   H8        1.0  0.9954622842428137  0.16719617983753973  0.09211362309493112  1.0000
  H   H9        1.0  0.4672969600086274  0.6494751947860239  0.94415209178651  1.0000
  H   H10       1.0  0.5327030398738852  0.35052480552715115  0.05584790844167904  1.0000
  H   H11       1.0  0.5385256546546536  0.690896736892056  0.7452375357071129  1.0000
  H   H12       1.0  0.4614743452278589  0.30910326342111905  0.25476246452107615  1.0000
  H   H13       1.0  0.026172004813042923  0.5201667943673772  0.06976190318477768  1.0000
  H   H14       1.0  0.9738279950673319  0.4798332059430253  0.930238096273781  1.0000
  H   H15       1.0  0.7530604003354638  0.5271634170068852  0.12390511581049414  1.0000
  H   H16       1.0  0.24693959954704875  0.4728365833062899  0.8760948844176949  1.0000
  H   H17       1.0  0.693100425986153  0.9402550261758563  0.19698603821803343  1.0000
  H   H18       1.0  0.30689957389422196  0.05974497413454609  0.8030139612405253  1.0000
  H   H19       1.0  0.9625151224217285  0.9291675828046037  0.14770851342850827  1.0000
  H   H20       1.0  0.03748487768796319  0.07083241641688706  0.8522914862438398  1.0000
  H   H21       1.0  0.17699484445619837  0.9518145804912448  0.04388499010903278  1.0000
  H   H22       1.0  0.8230051556534934  0.04818541873024599  0.9561150095633152  1.0000
  H   H23       1.0  0.3549379632556595  0.837053827987853  0.0647206529955474  1.0000
  H   H24       1.0  0.6450620368561699  0.16294617123641034  0.9352793474464309  1.0000
  H   H25       1.0  0.20557223400827865  0.8413999820645642  0.17764786409641026  1.0000
  H   H26       1.0  0.7944277658742339  0.1586000182486109  0.8223521361317788  1.0000
  H   H27       1.0  0.2380335138487617  0.5610722427202397  0.218215777908287  1.0000
  H   H28       1.0  0.7619664862609301  0.43892775650125115  0.7817842217640609  1.0000
  H   H29       1.0  0.39716013129201583  0.5772199230593927  0.11422368633825947  1.0000
  H   H30       1.0  0.602839868590497  0.42278007725378225  0.8857763138899296  1.0000
  H   H31       1.0  0.26338508006140143  0.48210673666275605  0.10707489680341936  1.0000
  H   H32       1.0  0.736614920050428  0.5178932625615075  0.892925103638559  1.0000
  H   H33       1.0  0.5207720955898144  0.4747113700844107  0.6735502253733917  1.0000
  H   H34       1.0  0.4792279042926982  0.5252886302287643  0.3264497748547974  1.0000
  H   H35       1.0  0.7245901494203603  0.27352885760007256  0.6297903452186089  1.0000
  H   H36       1.0  0.2754098506914691  0.726471141624191  0.37020965522336957  1.0000
  H   H37       1.0  0.9008367419547463  0.5867997622402268  0.3456077963880825  1.0000
  H   H38       1.0  0.0991632581549455  0.4132002369812641  0.6543922032842655  1.0000
  H   H39       1.0  0.6928172045586033  0.7752159845574064  0.40233738065808317  1.0000
  H   H40       1.0  0.3071827953239093  0.22478401575576873  0.5976626195701058  1.0000
  H   H41       1.0  0.8980929866566332  0.20639638481427253  0.4471718797460693  1.0000
  H   H42       1.0  0.10190701322587954  0.7936036154989026  0.5528281204821197  1.0000
  H   H43       1.0  0.013278826304106588  0.23281211534958757  0.5265952116925582  1.0000
  H   H44       1.0  0.9867211735784058  0.7671878849635876  0.4734047885356308  1.0000
  H   H45       1.0  0.006742904550425638  0.3937574324108032  0.2833736595904874  1.0000
  H   H46       1.0  0.9932570953320868  0.6062425679023719  0.7166263406377018  1.0000
  H   H47       1.0  0.12905591225894128  0.40527233349330827  0.36402386416092614  1.0000
  H   H48       1.0  0.8709440876235712  0.5947276668198667  0.6359761360672631  1.0000
  H   H49       1.0  0.2375038607426375  0.08371595467016804  0.47884484301674757  1.0000
  H   H50       1.0  0.7624961391398752  0.916284045643007  0.5211551572114416  1.0000
  H   H51       1.0  0.42089280507420973  0.8893607255291562  0.40995618431072167  1.0000
  H   H52       1.0  0.5791071948061653  0.11063927478124619  0.5900438151478368  1.0000
  H   H53       1.0  0.3505278662951541  0.08458489633832081  0.0898964584580342  1.0000
  H   H54       1.0  0.6494721335873587  0.9154151039748541  0.9101035417701548  1.0000
  H   H55       1.0  0.15890756576120563  0.2881751648997698  0.14523148947279502  1.0000
  H   H56       1.0  0.8410924343484861  0.7118248343217212  0.8547685101995528  1.0000
  C   C1        1.0  0.3117876415268765  0.7857378062902394  0.7119703901175735  1.0000
  C   C2        1.0  0.6882123585849528  0.21426219293402415  0.28802961032440494  1.0000
  C   C3        1.0  0.16186636881953148  0.8266671515876275  0.759602747690461  1.0000
  C   C4        1.0  0.8381336310629811  0.17333284872554763  0.24039725253772815  1.0000
  C   C5        1.0  0.12206914740393822  0.8008034413568815  0.8729497255321428  1.0000
  C   C6        1.0  0.8779308524785744  0.19919655895629343  0.12705027469604627  1.0000
  C   C7        1.0  0.228869156048541  0.7361133906188972  0.9429172166193533  1.0000
  C   C8        1.0  0.7711308440632884  0.2638866086053663  0.057082783822624876  1.0000
  C   C9        1.0  0.3789672291369893  0.6977640884337125  0.8938470875074733  1.0000
  C   C10       1.0  0.6210327707455233  0.3022359118794626  0.10615291272071568  1.0000
  C   C11       1.0  0.4207539885317638  0.7210342141065108  0.7806632688981687  1.0000
  C   C12       1.0  0.5792460113507488  0.2789657862066643  0.2193367313300204  1.0000
  C   C13       1.0  0.18697565432097327  0.7197563253401928  0.06692993444153578  1.0000
  C   C14       1.0  0.8130243457908561  0.2802436738840706  0.9330700660004426  1.0000
  C   C15       1.0  0.01848159304225632  0.7233920061515169  0.10480763161858547  1.0000
  C   C16       1.0  0.9815184068381188  0.2766079941588857  0.8951923678399731  1.0000
  C   C17       1.0  0.9542215932087764  0.6118725201678942  0.09922089119708782  1.0000
  C   C18       1.0  0.0457784066737361  0.38812748014528087  0.9007791090311013  1.0000
  C   C19       1.0  0.8002376904758727  0.6155043408040813  0.12824062681347792  1.0000
  C   C20       1.0  0.1997623096359567  0.384495658420182  0.8717593736285005  1.0000
  C   C21       1.0  0.7036521643937556  0.7339622672768745  0.16403443874599666  1.0000
  C   C22       1.0  0.2963478354887571  0.26603773303630046  0.8359655614821924  1.0000
  C   C23       1.0  0.765481782902944  0.8460578154631239  0.17085064329759297  1.0000
  C   C24       1.0  0.23451821697956868  0.15394218485005126  0.8291493569305961  1.0000
  C   C25       1.0  0.9203298117922699  0.8390169530968599  0.14202638335657836  1.0000
  C   C26       1.0  0.07967018809024266  0.16098304721631518  0.8579736168716107  1.0000
  C   C27       1.0  0.23303201348219593  0.8457895658247397  0.08982242151420065  1.0000
  C   C28       1.0  0.7669679864003167  0.15421043448843536  0.9101775787139885  1.0000
  C   C29       1.0  0.27682481100618483  0.576134787801505  0.12985132286338402  1.0000
  C   C30       1.0  0.7231751891056445  0.42386521142275857  0.8701486775785944  1.0000
  C   C31       1.0  0.6077975993123997  0.4961871917463898  0.6018537583709149  1.0000
  C   C32       1.0  0.3922024005679753  0.5038128085640128  0.3981462410876436  1.0000
  C   C33       1.0  0.7226343574098237  0.38342053650434904  0.576848381737009  1.0000
  C   C34       1.0  0.2773656424726889  0.616579463808826  0.42315161849118016  1.0000
  C   C35       1.0  0.8332714922907847  0.41108872562870696  0.4837748960061282  1.0000
  C   C36       1.0  0.16672850781890694  0.588911273592784  0.5162251036662197  1.0000
  C   C37       1.0  0.8215166549793642  0.5554551996959739  0.4201730577216634  1.0000
  C   C38       1.0  0.17848334490101087  0.4445448006144285  0.5798269417368953  1.0000
  C   C39       1.0  0.7034710580692575  0.6624654843699601  0.4515566238626526  1.0000
  C   C40       1.0  0.29652894181111744  0.3375345159404423  0.548443375595906  1.0000
  C   C41       1.0  0.9547097159638719  0.28704284955049236  0.4556148814699811  1.0000
  C   C42       1.0  0.04529028414795757  0.7129571496737711  0.5443851189719973  1.0000
  C   C43       1.0  0.06740492038162316  0.33107553473909335  0.3517281590511504  1.0000
  C   C44       1.0  0.9325950795008893  0.6689244655740818  0.6482718411770386  1.0000
  C   C45       1.0  0.18091222119622682  0.20651060614790387  0.317329020650955  1.0000
  C   C46       1.0  0.8190877786841483  0.7934893941624986  0.6826709788076036  1.0000
  C   C47       1.0  0.25774152063758093  0.09115771467602748  0.39140833667790975  1.0000
  C   C48       1.0  0.7422584794742484  0.9088422845482359  0.6085916637640686  1.0000
  C   C49       1.0  0.3621687898703731  0.9806945815272513  0.353010575094415  1.0000
  C   C50       1.0  0.6378312100100019  0.019305418783151097  0.6469894243641435  1.0000
  C   C51       1.0  0.32265689235034567  0.08891853186393033  0.17542828852757222  1.0000
  C   C52       1.0  0.6773431077614839  0.9110814673603332  0.8245717119144061  1.0000
  C   C53       1.0  0.21611147949893278  0.2030862107547064  0.2068851853981531  1.0000
  C   C54       1.0  0.7838885203814423  0.796913789555696  0.7931148140604055  1.0000
  N   N1        1.0  0.5979237525219367  0.6348320707213416  0.5404787098140897  1.0000
  N   N2        1.0  0.40207624736057584  0.36516792959183336  0.45952129041409945  1.0000
  N   N3        1.0  0.3944334480121924  0.9778786252799291  0.24726745904577355  1.0000
  N   N4        1.0  0.6055665518703203  0.02212137503324581  0.7527325411824156  1.0000
  O   O1        1.0  0.3456690767396044  0.8113056240433543  0.6012536167658239  1.0000
  O   O2        1.0  0.6543309233722251  0.1886943751809092  0.39874638367615456  1.0000
  O   O3        1.0  0.5541560630111605  0.7348254772603627  0.19133713110239567  1.0000
  O   O4        1.0  0.44584393686921453  0.2651745230500398  0.8086628683561631  1.0000
