data_image0
_chemical_formula_structural       H120C108N16O36
_chemical_formula_sum              "H120 C108 N16 O36"
_cell_length_a       10.872701187049328
_cell_length_b       17.184125834192226
_cell_length_c       15.41724001318773
_cell_angle_alpha    90.0
_cell_angle_beta     112.7791317595996
_cell_angle_gamma    90.0

_space_group_name_H-M_alt    "P 1"
_space_group_IT_number       1

loop_
  _space_group_symop_operation_xyz
  'x, y, z'

loop_
  _atom_site_type_symbol
  _atom_site_label
  _atom_site_symmetry_multiplicity
  _atom_site_fract_x
  _atom_site_fract_y
  _atom_site_fract_z
  _atom_site_occupancy
  H   H1        1.0  0.6561963468131492  0.9627487391346656  0.3827866532974894  1.0000
  H   H2        1.0  0.3438036528526811  0.4627487395476115  0.11721334651190705  1.0000
  H   H3        1.0  0.34380365343931113  0.03725126062137513  0.6172133468515323  1.0000
  H   H4        1.0  0.6561963464022439  0.5372512607903618  0.882786653363103  1.0000
  H   H5        1.0  0.6476947049433253  0.050328213279209486  0.4437483963504668  1.0000
  H   H6        1.0  0.35230529572004043  0.5503282128662637  0.05625160373294113  1.0000
  H   H7        1.0  0.3523052953091352  0.9496717870587638  0.5562516037985549  1.0000
  H   H8        1.0  0.64769470453242  0.44967178688977716  0.9437483964160805  1.0000
  H   H9        1.0  0.5121238869739572  0.9822282665327923  0.4096323587355942  1.0000
  H   H10       1.0  0.4878761136894084  0.4822282663638055  0.09036764134781365  1.0000
  H   H11       1.0  0.4878761132785032  0.017771733805181107  0.5903676414134275  1.0000
  H   H12       1.0  0.512123886563052  0.5177717333922353  0.9096323588012081  1.0000
  H   H13       1.0  0.9686624089285774  0.8081401221101332  0.7910194615647694  1.0000
  H   H14       1.0  0.03133759191302543  0.3081401219411466  0.708980538275941  1.0000
  H   H15       1.0  0.03133759132388302  0.1918598776459076  0.20898053858425225  1.0000
  H   H16       1.0  0.9686624083419473  0.6918598778148942  0.29101946122514416  1.0000
  H   H17       1.0  0.9309464462732102  0.728859680780425  0.8528171577476487  1.0000
  H   H18       1.0  0.06905355356834476  0.2288596806114384  0.6471828424669867  1.0000
  H   H19       1.0  0.06905355397925003  0.27114031955754825  0.14718284240137286  1.0000
  H   H20       1.0  0.9309464466841156  0.7711403197265349  0.3528171576820351  1.0000
  H   H21       1.0  0.8143594502857338  0.8059383522694634  0.8081323735766526  1.0000
  H   H22       1.0  0.18564054955833362  0.30593835210047676  0.6918676259900466  1.0000
  H   H23       1.0  0.1856405499692389  0.19406164748657742  0.1918676259244327  1.0000
  H   H24       1.0  0.8143594506941267  0.6940616476555641  0.30813237415897515  1.0000
  H   H25       1.0  0.2633771020769764  0.7077227033452808  0.620822317334631  1.0000
  H   H26       1.0  0.736622898762114  0.20772270317629415  0.8791776831540158  1.0000
  H   H27       1.0  0.736622898175484  0.29227729699269245  0.37917768281439057  1.0000
  H   H28       1.0  0.2633771014903464  0.7922772965797467  0.1208223169950059  1.0000
  H   H29       1.0  0.2066510061880235  0.7273014781544456  0.49711839980299544  1.0000
  H   H30       1.0  0.793348994475342  0.22730147856739136  0.00288160028041242  1.0000
  H   H31       1.0  0.7933489940644368  0.2726985216015953  0.5028816003460261  1.0000
  H   H32       1.0  0.20665100577711823  0.772698521770582  0.9971183998686093  1.0000
  H   H33       1.0  0.33939652354614724  0.7848709995572491  0.5804377071865544  1.0000
  H   H34       1.0  0.6606034762954079  0.28487099938826255  0.919562293028081  1.0000
  H   H35       1.0  0.6606034757087779  0.21512900078072408  0.4195622926884557  1.0000
  H   H36       1.0  0.33939652395705244  0.7151290003677783  0.08043770712094074  1.0000
  H   H37       1.0  0.4280978175591811  0.4197035862976166  0.7922432023355799  1.0000
  H   H38       1.0  0.571902182282374  0.9197035864666033  0.7077567978790554  1.0000
  H   H39       1.0  0.5719021826932792  0.5802964134584242  0.20775679781344172  1.0000
  H   H40       1.0  0.428097816972551  0.08029641328943757  0.2922432019959547  1.0000
  H   H41       1.0  0.42571749009214455  0.32920806706056843  0.7330993795858949  1.0000
  H   H42       1.0  0.5742825097494105  0.829208067229555  0.7669006206287404  1.0000
  H   H43       1.0  0.5742825101603157  0.6707919326954724  0.2669006205631268  1.0000
  H   H44       1.0  0.42571749050304986  0.1707919325264858  0.23309937952028115  1.0000
  H   H45       1.0  0.3011765596601359  0.40309911349794375  0.6782918586862065  1.0000
  H   H46       1.0  0.6988234401814192  0.903099113084998  0.821708141528429  1.0000
  H   H47       1.0  0.6988234395947891  0.5969008868400294  0.3217081411888037  1.0000
  H   H48       1.0  0.30117656007104116  0.09690088667104282  0.17829185862059277  1.0000
  H   H49       1.0  0.5354095566670618  0.7107791509357362  0.4121057598328892  1.0000
  H   H50       1.0  0.46459044399379146  0.2107791507667496  0.08789424089845514  1.0000
  H   H51       1.0  0.46459044358539864  0.2892208488203046  0.5878942403161324  1.0000
  H   H52       1.0  0.5354095562586688  0.7892208489892912  0.9121057592505666  1.0000
  H   H53       1.0  0.6211220746548194  0.41826862648424423  0.5699901952713006  1.0000
  H   H54       1.0  0.3788779251867355  0.918268626653231  0.9300098049433349  1.0000
  H   H55       1.0  0.3788779255976409  0.5817313732717966  0.43000980487772117  1.0000
  H   H56       1.0  0.6211220740681894  0.08173137310280994  0.0699901949316753  1.0000
  H   H57       1.0  0.8140421272651069  0.8811207713500631  0.6754099059083472  1.0000
  H   H58       1.0  0.18595787257644802  0.38112077118107646  0.8245900943062882  1.0000
  H   H59       1.0  0.18595787198981803  0.11887922840597771  0.32459009396666305  1.0000
  H   H60       1.0  0.8140421276760124  0.6188792285749644  0.17540990584273344  1.0000
  H   H61       1.0  0.9805282659089981  0.4886420514503125  0.927046185899403  1.0000
  H   H62       1.0  0.01947173393506922  0.9886420510373666  0.5729538136672958  1.0000
  H   H63       1.0  0.01947173434346208  0.5113579488876608  0.07295381424961858  1.0000
  H   H64       1.0  0.9805282653198558  0.01135794871867421  0.4270461862077143  1.0000
  H   H65       1.0  0.834342606715361  0.5446518798981989  0.7731083335336524  1.0000
  H   H66       1.0  0.16565739312619415  0.04465187972921223  0.726891666680983  1.0000
  H   H67       1.0  0.16565739253956419  0.45534811985784196  0.2268916663413579  1.0000
  H   H68       1.0  0.8343426071262662  0.9553481200268287  0.2731083334680386  1.0000
  H   H69       1.0  0.8709936951386974  0.256769729957428  0.8152128498532478  1.0000
  H   H70       1.0  0.1290063057029053  0.7567697295444823  0.6847871499874626  1.0000
  H   H71       1.0  0.1290063051137629  0.7432302703805452  0.18478715029577392  1.0000
  H   H72       1.0  0.8709936945520675  0.24323027021155863  0.31521284951362255  1.0000
  H   H73       1.0  0.837541874475064  0.6778019354830632  0.5053936428380451  1.0000
  H   H74       1.0  0.16245812536649118  0.1778019353140767  0.9946063573765905  1.0000
  H   H75       1.0  0.16245812477986118  0.32219806427297754  0.4946063570369652  1.0000
  H   H76       1.0  0.8375418748859692  0.8221980644419641  0.005393642772431259  1.0000
  H   H77       1.0  0.9135838524806996  0.5916726482396559  0.4985323471124527  1.0000
  H   H78       1.0  0.08641614718513072  0.0916726486526017  0.0014676526969437445  1.0000
  H   H79       1.0  0.08641614677422547  0.4083273515163849  0.5014676527625574  1.0000
  H   H80       1.0  0.9135838530673295  0.9083273516853716  0.998532347452078  1.0000
  H   H81       1.0  0.7227299898966549  0.31278417196557146  0.6624728039141561  1.0000
  H   H82       1.0  0.2772700099449001  0.8127841715526256  0.8375271963004792  1.0000
  H   H83       1.0  0.2772700103558054  0.6872158283724017  0.33752719623486555  1.0000
  H   H84       1.0  0.7227299893100249  0.18721582820341517  0.1624728035745309  1.0000
  H   H85       1.0  0.5345771286492794  0.8523583911877536  0.38734082259600605  1.0000
  H   H86       1.0  0.46542287101403856  0.3523583916006994  0.11265917786132686  1.0000
  H   H87       1.0  0.4654228706056457  0.14764160856828717  0.6126591772790041  1.0000
  H   H88       1.0  0.5345771292384218  0.6476416087372738  0.8873408222876948  1.0000
  H   H89       1.0  0.3469542937549424  0.8778432051506855  0.2367935102781925  1.0000
  H   H90       1.0  0.653045705910888  0.3778432049816989  0.26320648953120396  1.0000
  H   H91       1.0  0.6530457065000302  0.12215679460535532  0.7632064892228927  1.0000
  H   H92       1.0  0.34695429334403716  0.6221567947743419  0.7367935103438061  1.0000
  H   H93       1.0  0.3003930085459433  0.9569072962257534  0.334964772644191  1.0000
  H   H94       1.0  0.699606991119887  0.45690729605676667  0.1650352271652054  1.0000
  H   H95       1.0  0.699606991706517  0.04309270411221993  0.6650352275048306  1.0000
  H   H96       1.0  0.3003930081350381  0.5430927036992741  0.8349647727098047  1.0000
  H   H97       1.0  0.11892617284105647  0.8228854523320421  0.3416846731132745  1.0000
  H   H98       1.0  0.8810738268247739  0.3228854521630555  0.158315326696122  1.0000
  H   H99       1.0  0.8810738274114039  0.17711454742399868  0.6583153270357471  1.0000
  H   H100      1.0  0.1189261724301512  0.6771145475929853  0.8416846731788882  1.0000
  H   H101      1.0  0.13600041890769446  0.9135864036075928  0.40096317700626566  1.0000
  H   H102      1.0  0.8639995807581359  0.41358640343860614  0.09903682280313081  1.0000
  H   H103      1.0  0.8639995803472306  0.08641359614844805  0.5990368228687446  1.0000
  H   H104      1.0  0.13600041949432448  0.5864135963174347  0.9009631773458909  1.0000
  H   H105      1.0  0.27452594110912887  0.8483977119738842  0.43214995996620825  1.0000
  H   H106      1.0  0.7254740595542367  0.3483977123868301  0.06785004011719967  1.0000
  H   H107      1.0  0.7254740591433314  0.1516022877821565  0.5678500401828134  1.0000
  H   H108      1.0  0.2745259406982236  0.6516022879511432  0.9321499600318219  1.0000
  H   H109      1.0  0.1484657379934496  0.9639592033852598  0.16364672357734342  1.0000
  H   H110      1.0  0.8515342616723808  0.46395920379820554  0.3363532762320531  1.0000
  H   H111      1.0  0.8515342612614754  0.03604079637078105  0.8363532762976668  1.0000
  H   H112      1.0  0.1484657385800796  0.5360407965397677  0.6636467239169686  1.0000
  H   H113      1.0  0.06503000778138415  0.9887588227614195  0.23896105106753596  1.0000
  H   H114      1.0  0.9349699918844462  0.4887588225924328  0.2610389487418605  1.0000
  H   H115      1.0  0.9349699924710763  0.01124117757655377  0.7610389490814857  1.0000
  H   H116      1.0  0.06503000836801413  0.511241177163608  0.7389610514071612  1.0000
  H   H117      1.0  0.04032074193707911  0.8955326624401077  0.1845589388872875  1.0000
  H   H118      1.0  0.9596792577287513  0.39553266227112105  0.31544106092210894  1.0000
  H   H119      1.0  0.959679257317846  0.10446733789786555  0.8154410609877227  1.0000
  H   H120      1.0  0.040320742523709104  0.6044673380668522  0.6845589392269127  1.0000
  C   C1        1.0  0.6210501171164754  0.9885992417605319  0.434306344740353  1.0000
  C   C2        1.0  0.3789498825493549  0.48859924159154516  0.06569365506904341  1.0000
  C   C3        1.0  0.3789498831359849  0.011400758577441437  0.5656936554086686  1.0000
  C   C4        1.0  0.6210501177031054  0.5114007581644956  0.9343063450799782  1.0000
  C   C5        1.0  0.6766560527773562  0.8750962408619304  0.5308057759574143  1.0000
  C   C6        1.0  0.32334394706419883  0.3750962412748762  0.9691942242572211  1.0000
  C   C7        1.0  0.32334394647756887  0.12490375889411043  0.4691942239175959  1.0000
  C   C8        1.0  0.6766560531882615  0.624903759063097  0.030805775891800537  1.0000
  C   C9        1.0  0.5971829728154344  0.8284931568454867  0.4554096351349936  1.0000
  C   C10       1.0  0.40281702685039594  0.3284931572584326  0.044590364674402944  1.0000
  C   C11       1.0  0.4028170264394907  0.17150684291055407  0.5445903647400167  1.0000
  C   C12       1.0  0.5971829734045768  0.6715068430795408  0.9554096348266823  1.0000
  C   C13       1.0  0.5972517311001823  0.7484120335298131  0.46918822454271325  1.0000
  C   C14       1.0  0.40274826856564805  0.24841203336082654  0.030811775266683154  1.0000
  C   C15       1.0  0.4027482691547904  0.2515879668081601  0.530811774958372  1.0000
  C   C16       1.0  0.5972517316868122  0.7515879669771467  0.9691882248823385  1.0000
  C   C17       1.0  0.6747171800696684  0.715015276805762  0.5552756392724828  1.0000
  C   C18       1.0  0.32528281977188667  0.2150152772187078  0.9447243609421526  1.0000
  C   C19       1.0  0.3252828191852567  0.2849847229502788  0.44472436060252746  1.0000
  C   C20       1.0  0.6747171804805737  0.7849847231192655  0.055275639206869086  1.0000
  C   C21       1.0  0.7549210786029074  0.7622368426758972  0.6312693092981347  1.0000
  C   C22       1.0  0.24507892123864766  0.2622368425069106  0.8687306909165006  1.0000
  C   C23       1.0  0.24507892065201764  0.23776315766207604  0.3687306905768754  1.0000
  C   C24       1.0  0.7549210790138127  0.7377631572491302  0.13126930923252106  1.0000
  C   C25       1.0  0.7536670898079616  0.8426959665987983  0.6188965503937458  1.0000
  C   C26       1.0  0.24633291003359337  0.3426959670117442  0.8811034498208896  1.0000
  C   C27       1.0  0.2463329104444987  0.15730403315724242  0.3811034497552758  1.0000
  C   C28       1.0  0.7536670902188669  0.657304033326229  0.11889655032813212  1.0000
  C   C29       1.0  0.8895547916536349  0.7704737737462203  0.7953742084352331  1.0000
  C   C30       1.0  0.11044520819043263  0.27047377357723373  0.7046257911314658  1.0000
  C   C31       1.0  0.1104452086013379  0.22952622659175292  0.20462579106585208  1.0000
  C   C32       1.0  0.8895547920620276  0.7295262261788071  0.2953742090175558  1.0000
  C   C33       1.0  0.7596287771455047  0.5836639685239752  0.5472250726027523  1.0000
  C   C34       1.0  0.24037122269856281  0.08366396835498859  0.9527749269639466  1.0000
  C   C35       1.0  0.24037122210942044  0.41633603181399803  0.4527749272722578  1.0000
  C   C36       1.0  0.7596287775564099  0.9163360319829847  0.047225072537138646  1.0000
  C   C37       1.0  0.7614143272532178  0.5046282385075206  0.5656393725156331  1.0000
  C   C38       1.0  0.2385856725883373  0.004628238338533941  0.9343606276990023  1.0000
  C   C39       1.0  0.23858567299924258  0.4953717618304527  0.4343606276333885  1.0000
  C   C40       1.0  0.761414327664123  0.9953717614175069  0.0656393724500194  1.0000
  C   C41       1.0  0.6781911222173043  0.46674606304621635  0.613719138361261  1.0000
  C   C42       1.0  0.3218088786217861  0.9667460626332706  0.8862808621273859  1.0000
  C   C43       1.0  0.3218088780351561  0.5332539372917569  0.38628086178776067  1.0000
  C   C44       1.0  0.6781911216306743  0.03325393712277024  0.11371913802163586  1.0000
  C   C45       1.0  0.5821994999846235  0.5249849871356037  0.6264209896033794  1.0000
  C   C46       1.0  0.41780049985944395  0.024984986966617044  0.8735790099633195  1.0000
  C   C47       1.0  0.41780050027034926  0.47501501320236955  0.3735790098977057  1.0000
  C   C48       1.0  0.5821995003930163  0.9750150133713562  0.12642099018570221  1.0000
  C   C49       1.0  0.5869326742759171  0.6020208999759281  0.60689489376134  1.0000
  C   C50       1.0  0.4130673265656857  0.10202090038887392  0.8931051060793704  1.0000
  C   C51       1.0  0.4130673259765433  0.3979790997801127  0.3931051063876816  1.0000
  C   C52       1.0  0.5869326736867746  0.8979790999490994  0.10689489406965134  1.0000
  C   C53       1.0  0.49981634885593856  0.6622957163962706  0.6271430773098817  1.0000
  C   C54       1.0  0.5001836509856165  0.16229571622728392  0.8728569229047537  1.0000
  C   C55       1.0  0.5001836503989865  0.33770428335977026  0.3728569225651284  1.0000
  C   C56       1.0  0.4998163492668439  0.8377042835287569  0.12714307724426802  1.0000
  C   C57       1.0  0.2926036515856531  0.7272652807938116  0.5639680028923889  1.0000
  C   C58       1.0  0.7073963482584144  0.22726528120675735  0.93603199667431  1.0000
  C   C59       1.0  0.7073963486668072  0.2727347189622293  0.4360319972566328  1.0000
  C   C60       1.0  0.292603651994046  0.7727347191312159  0.06396800347471164  1.0000
  C   C61       1.0  0.48625098800920674  0.4992514948260842  0.665332574234045  1.0000
  C   C62       1.0  0.5137490118323483  0.9992514944131383  0.8346674259805902  1.0000
  C   C63       1.0  0.5137490122432536  0.500748505511889  0.3346674259149765  1.0000
  C   C64       1.0  0.4862509874225768  0.0007485053429023976  0.16533257389441994  1.0000
  C   C65       1.0  0.40546803032535234  0.39167590862304613  0.7238885411983027  1.0000
  C   C66       1.0  0.5945319695162027  0.8916759087920327  0.7761114590163327  1.0000
  C   C67       1.0  0.594531969927108  0.6083240911329947  0.27611145895071887  1.0000
  C   C68       1.0  0.40546803073625765  0.10832409096400808  0.223888541132689  1.0000
  C   C69       1.0  0.8529029678460706  0.45814450650349753  0.5460414998612753  1.0000
  C   C70       1.0  0.14709703199548452  0.9581445060905518  0.9539585003533602  1.0000
  C   C71       1.0  0.14709703240638974  0.5418554938344756  0.4539585002877464  1.0000
  C   C72       1.0  0.8529029682569758  0.04185549366548908  0.046041499795661515  1.0000
  C   C73       1.0  0.7687766497855374  0.4323091393580457  0.7076901571454574  1.0000
  C   C74       1.0  0.23122335005853  0.9323091395270324  0.7923098424212415  1.0000
  C   C75       1.0  0.2312233504694353  0.5676908609799276  0.29230984235562785  1.0000
  C   C76       1.0  0.7687766501939303  0.06769086081094092  0.20769015772778016  1.0000
  C   C77       1.0  0.8421596621227846  0.48160814113294875  0.7823861665198061  1.0000
  C   C78       1.0  0.15784033772128284  0.9816081413019354  0.7176138330468929  1.0000
  C   C79       1.0  0.15784033813218812  0.518391858623092  0.21761383298127923  1.0000
  C   C80       1.0  0.8421596615336423  0.018391859036037864  0.28238616682811724  1.0000
  C   C81       1.0  0.9243831944206841  0.45091751973685656  0.8686225115296219  1.0000
  C   C82       1.0  0.07561680641840625  0.9509175199058432  0.631377488959025  1.0000
  C   C83       1.0  0.07561680583177625  0.5490824800191842  0.13137748861939985  1.0000
  C   C84       1.0  0.924383193834054  0.04908248043213003  0.3686225111899966  1.0000
  C   C85       1.0  0.9332438279442054  0.37002815280530094  0.8791052076478552  1.0000
  C   C86       1.0  0.06675617189734988  0.8700281529742876  0.6208947925667803  1.0000
  C   C87       1.0  0.06675617230825513  0.6299718469507399  0.12089479250116655  1.0000
  C   C88       1.0  0.9332438283551105  0.12997184678175325  0.37910520758224137  1.0000
  C   C89       1.0  0.8630849841778062  0.31954570124678794  0.8054862026600191  1.0000
  C   C90       1.0  0.136915015663749  0.8195457008338422  0.6945137975546163  1.0000
  C   C91       1.0  0.13691501607465423  0.6804542990911853  0.19451379748900258  1.0000
  C   C92       1.0  0.8630849845887113  0.18045429892219864  0.30548620259440534  1.0000
  C   C93       1.0  0.7806128655686962  0.3514424084339165  0.7199030600080414  1.0000
  C   C94       1.0  0.2193871342753712  0.8514424086029031  0.7800969395586576  1.0000
  C   C95       1.0  0.21938713368874121  0.6485575913221243  0.2800969392190324  1.0000
  C   C96       1.0  0.7806128659770892  0.14855759173507013  0.2199030605903641  1.0000
  C   C97       1.0  0.23091794086529752  0.9088902316417529  0.3009120898215848  1.0000
  C   C98       1.0  0.7690820588005327  0.40889023147276615  0.19908790998781162  1.0000
  C   C99       1.0  0.7690820593871628  0.09110976869622046  0.6990879103274368  1.0000
  C   C100      1.0  0.2309179404543923  0.5911097682832747  0.8009120898871985  1.0000
  C   C101      1.0  0.18755472811679702  0.8713287056014996  0.37353315178533647  1.0000
  C   C102      1.0  0.8124452715490335  0.37132870601444534  0.12646684802406  1.0000
  C   C103      1.0  0.8124452721356633  0.1286712941545413  0.6264668483636852  1.0000
  C   C104      1.0  0.18755472870342704  0.6286712943235279  0.8735331521249616  1.0000
  C   C105      1.0  0.11451638077359716  0.9413335304967164  0.21712466118114507  1.0000
  C   C106      1.0  0.8854836188922331  0.44133353090966226  0.28287533862825137  1.0000
  C   C107      1.0  0.8854836194788632  0.05866646925932438  0.7828753389678765  1.0000
  C   C108      1.0  0.11451638036269189  0.558666469428311  0.7171246612467589  1.0000
  N   N1        1.0  0.6719258798208371  0.6324476179274251  0.5687636469728716  1.0000
  N   N2        1.0  0.3280741200232304  0.1324476177584385  0.9312363525938273  1.0000
  N   N3        1.0  0.32807411943408804  0.36755238182861566  0.4312363529021386  1.0000
  N   N4        1.0  0.6719258802292298  0.8675523819976023  0.06876364755519432  1.0000
  N   N5        1.0  0.83436292019539  0.6186830568271241  0.5067282365734707  1.0000
  N   N6        1.0  0.16563707964867747  0.1186830566581375  0.9932717629932283  1.0000
  N   N7        1.0  0.16563707905953506  0.3813169429289167  0.49327176330153955  1.0000
  N   N8        1.0  0.8343629206062952  0.8813169430979033  0.006728236507857011  1.0000
  N   N9        1.0  0.9318348865842998  0.4193454546091397  0.5316352936169824  1.0000
  N   N10       1.0  0.06816511325725517  0.9193454541961938  0.9683647065976531  1.0000
  N   N11       1.0  0.06816511366816043  0.5806545457288336  0.46836470653203927  1.0000
  N   N12       1.0  0.9318348869952051  0.08065454555984695  0.03163529355136859  1.0000
  N   N13       1.0  0.016866430044839367  0.33750773626551656  0.9699242356896625  1.0000
  N   N14       1.0  0.9831335697992281  0.8375077364345033  0.5300757638770365  1.0000
  N   N15       1.0  0.9831335702101335  0.6624922634905243  0.030075763811422775  1.0000
  N   N16       1.0  0.016866430453232224  0.1624922633215376  0.4699242362719852  1.0000
  O   O1        1.0  0.6868179089636564  0.9538847066275876  0.5251012517440795  1.0000
  O   O2        1.0  0.3131820908804111  0.453884706458601  0.9748987478226193  1.0000
  O   O3        1.0  0.3131820912888039  0.04611529312845321  0.47489874840494206  1.0000
  O   O4        1.0  0.6868179093720493  0.5461152932974398  0.025101252326402347  1.0000
  O   O5        1.0  0.8287194020957614  0.7245011826686983  0.7118145846622477  1.0000
  O   O6        1.0  0.17128059774830595  0.22450118249971174  0.7881854149044514  1.0000
  O   O7        1.0  0.17128059815669883  0.27549881766927486  0.28818541548677395  1.0000
  O   O8        1.0  0.828719401506619  0.7754988178382615  0.21181458497055888  1.0000
  O   O9        1.0  0.4920564594138945  0.42122370202838155  0.6801434334213344  1.0000
  O   O10       1.0  0.5079435404276605  0.9212237016154358  0.819856566793301  1.0000
  O   O11       1.0  0.5079435398410306  0.5787762983095917  0.31985656645367583  1.0000
  O   O12       1.0  0.4920564598247998  0.07877629814060504  0.18014343335572064  1.0000
  O   O13       1.0  0.4085989349460543  0.541238929448121  0.6850383311348329  1.0000
  O   O14       1.0  0.5914010648955008  0.04123892986106684  0.8149616690798024  1.0000
  O   O15       1.0  0.591401065306406  0.4587610703079198  0.31496166901418876  1.0000
  O   O16       1.0  0.4085989353569596  0.9587610704769064  0.18503833106921924  1.0000
  O   O17       1.0  0.5339990424536418  0.6987471365059653  0.7006012402936144  1.0000
  O   O18       1.0  0.4660009573879133  0.19874713633697869  0.7993987599210209  1.0000
  O   O19       1.0  0.4660009577988186  0.30125286383200794  0.29939875985540726  1.0000
  O   O20       1.0  0.5339990428645471  0.8012528634190621  0.20060124022800066  1.0000
  O   O21       1.0  0.38552618340537265  0.6720191816229703  0.5518919778371593  1.0000
  O   O22       1.0  0.6144738164386949  0.17201918145398362  0.9481080217295398  1.0000
  O   O23       1.0  0.6144738168470877  0.32798081813307056  0.4481080223118624  1.0000
  O   O24       1.0  0.38552618381376547  0.8279808183020573  0.05189197841948189  1.0000
  O   O25       1.0  0.026950071933530648  0.265239051667725  0.9768030794105964  1.0000
  O   O26       1.0  0.9730499279105368  0.7652390512547792  0.5231969201561025  1.0000
  O   O27       1.0  0.9730499283189297  0.7347609486702482  0.023196920738425206  1.0000
  O   O28       1.0  0.02695007234192351  0.2347609485012616  0.47680307999291915  1.0000
  O   O29       1.0  0.07300990983791728  0.3825480913855874  0.03678566780794072  1.0000
  O   O30       1.0  0.9269900898254007  0.8825480915545739  0.4632143326493922  1.0000
  O   O31       1.0  0.926990090414543  0.6174519083704535  0.963214332341081  1.0000
  O   O32       1.0  0.07300991042705968  0.11745190878339927  0.5367856674996295  1.0000
  O   O33       1.0  0.3017293104147484  0.8501977511669431  0.2716691817413812  1.0000
  O   O34       1.0  0.6982706902486173  0.35019775099795647  0.22833081834202673  1.0000
  O   O35       1.0  0.698270689837712  0.14980224917103016  0.7283308184076405  1.0000
  O   O36       1.0  0.30172931000384307  0.6498022487580843  0.7716691818069951  1.0000
