data_image0
_chemical_formula_structural       H52C64N12O16
_chemical_formula_sum              "H52 C64 N12 O16"
_cell_length_a       13.852042251814257
_cell_length_b       6.546676103605549
_cell_length_c       15.267472551527673
_cell_angle_alpha    90.0
_cell_angle_beta     92.9086489176901
_cell_angle_gamma    90.0

_space_group_name_H-M_alt    "P 1"
_space_group_IT_number       1

loop_
  _space_group_symop_operation_xyz
  'x, y, z'

loop_
  _atom_site_type_symbol
  _atom_site_label
  _atom_site_symmetry_multiplicity
  _atom_site_fract_x
  _atom_site_fract_y
  _atom_site_fract_z
  _atom_site_occupancy
  H   H1        1.0  0.5268989355133646  0.6860641169533899  0.5030825525193094  1.0000
  H   H2        1.0  0.4731010645133876  0.18606411722876237  0.996917447334095  1.0000
  H   H3        1.0  0.4731010646549261  0.3139358824958652  0.49691744726079345  1.0000
  H   H4        1.0  0.5268989356549032  0.8139358822204926  0.0030825524460078983  1.0000
  H   H5        1.0  0.5883577442968435  0.8386402982387109  0.585985419968522  1.0000
  H   H6        1.0  0.41164225572068475  0.3386402985140835  0.9140145805393918  1.0000
  H   H7        1.0  0.41164225586222314  0.16135970121054405  0.41401458046609013  1.0000
  H   H8        1.0  0.5883577444383818  0.6613597009351715  0.08598541989522047  1.0000
  H   H9        1.0  0.5802934669411747  0.27392900177424934  0.7550213087126065  1.0000
  H   H10       1.0  0.4197065330855777  0.7739290014988768  0.7449786911407981  1.0000
  H   H11       1.0  0.4197065332271161  0.7260709976750057  0.24497869106749648  1.0000
  H   H12       1.0  0.5802934663599255  0.2260709979503782  0.25502130859766997  1.0000
  H   H13       1.0  0.6983445964803642  0.670422568726557  0.9437560774304136  1.0000
  H   H14       1.0  0.3016554028236005  0.17042256900192956  0.5562439223813561  1.0000
  H   H15       1.0  0.30165540296513893  0.32957743072269796  0.0562439223080545  1.0000
  H   H16       1.0  0.6983445966219027  0.8295774304473255  0.443756077357112  1.0000
  H   H17       1.0  0.6922999917661343  0.9578449431073034  0.8318776011489352  1.0000
  H   H18       1.0  0.3077000082513939  0.45784494185518326  0.6681223993589787  1.0000
  H   H19       1.0  0.3077000083929323  0.04215505786944429  0.16812239928567704  1.0000
  H   H20       1.0  0.6922999919076728  0.5421550575940718  0.3318776010756336  1.0000
  H   H21       1.0  0.6700104607974328  0.2048258564772267  0.4214101062020016  1.0000
  H   H22       1.0  0.32998953878038456  0.7048258577293469  0.07858989411767417  1.0000
  H   H23       1.0  0.32998953936163367  0.7951741429720283  0.5785898942326106  1.0000
  H   H24       1.0  0.6700104606558944  0.2951741432474008  0.9214101062753031  1.0000
  H   H25       1.0  0.7389721904736366  0.05541999699667141  0.6635588560841171  1.0000
  H   H26       1.0  0.2610278095531157  0.5554199967212989  0.8364411437692875  1.0000
  H   H27       1.0  0.26102780969465417  0.9445800024525836  0.3364411436959859  1.0000
  H   H28       1.0  0.738972190615175  0.4445800027279561  0.16355885601081552  1.0000
  H   H29       1.0  0.8477392542386785  0.22196783787725255  0.8594187729015347  1.0000
  H   H30       1.0  0.15226074578807386  0.7219678376018801  0.64058122695187  1.0000
  H   H31       1.0  0.15226074592961228  0.7780321630994951  0.14058122687856842  1.0000
  H   H32       1.0  0.8477392543802169  0.27803216337486764  0.3594187728282329  1.0000
  H   H33       1.0  0.9280436531945073  0.455524723203823  0.9675968298520347  1.0000
  H   H34       1.0  0.07195634682302085  0.9555247229284505  0.532403170655879  1.0000
  H   H35       1.0  0.0719563469645593  0.5444752777729248  0.032403170582577516  1.0000
  H   H36       1.0  0.9280436533360458  0.04447527804829724  0.4675968297787331  1.0000
  H   H37       1.0  0.9792924392567209  0.8049905656853203  0.9214354842677049  1.0000
  H   H38       1.0  0.02070756076080727  0.30499056443320016  0.5785645162402088  1.0000
  H   H39       1.0  0.020707560902345726  0.19500943529142734  0.07856451616690728  1.0000
  H   H40       1.0  0.9792924386754717  0.6950094350160549  0.42143548415276844  1.0000
  H   H41       1.0  0.9475196873790681  0.9182415327816869  0.7679795476088381  1.0000
  H   H42       1.0  0.05248031263845995  0.41824153305705924  0.7320204528990757  1.0000
  H   H43       1.0  0.0524803127799984  0.08175846666756827  0.23202045282577408  1.0000
  H   H44       1.0  0.9475196867978191  0.5817584663921957  0.2679795474939016  1.0000
  H   H45       1.0  0.8859985617512329  0.8477818945316816  0.6158936139602801  1.0000
  H   H46       1.0  0.11400143826629519  0.3477818948070541  0.8841063865476337  1.0000
  H   H47       1.0  0.11400143768504606  0.15221810491757337  0.3841063864326971  1.0000
  H   H48       1.0  0.8859985618927714  0.6522181046422009  0.11589361388697857  1.0000
  H   H49       1.0  0.8001558465347565  0.6169473219815421  0.5095645915786735  1.0000
  H   H50       1.0  0.1998441534919959  0.11694732225691457  0.990435408274731  1.0000
  H   H51       1.0  0.19984415363353433  0.38305267746771293  0.49043540820142945  1.0000
  H   H52       1.0  0.8001558466670706  0.8830526771923405  0.009564592159881195  1.0000
  C   C1        1.0  0.5565581532410974  0.5471067062608123  0.6215778933091921  1.0000
  C   C2        1.0  0.443441846785655  0.04710670653618474  0.8784221065442124  1.0000
  C   C3        1.0  0.44344184692719346  0.45289329318844274  0.3784221064709108  1.0000
  C   C4        1.0  0.5565581533826358  0.9528932929130702  0.12157789323589059  1.0000
  C   C5        1.0  0.5986157552224723  0.5866050495281058  0.7125377416296116  1.0000
  C   C6        1.0  0.40138424480428  0.08660504980347832  0.7874622582237928  1.0000
  C   C7        1.0  0.4013842442230309  0.4133949499211492  0.28746225810885645  1.0000
  C   C8        1.0  0.5986157553640107  0.9133949496457767  0.21253774155631006  1.0000
  C   C9        1.0  0.6035375423134954  0.4275007753107909  0.7735162598358561  1.0000
  C   C10       1.0  0.39646245771325683  0.9275007765629112  0.7264837400175483  1.0000
  C   C11       1.0  0.39646245785479534  0.5724992241384641  0.2264837399442468  1.0000
  C   C12       1.0  0.6035375417322464  0.07249922441383659  0.2735162597209197  1.0000
  C   C13       1.0  0.6700975930897428  0.6488276650284593  0.8764809827560127  1.0000
  C   C14       1.0  0.32990240693700945  0.14882766530383174  0.6235190170973919  1.0000
  C   C15       1.0  0.3299024070785479  0.35117233442079576  0.12351901702409028  1.0000
  C   C16       1.0  0.6700975932220571  0.8511723341454233  0.3764809833372203  1.0000
  C   C17       1.0  0.665761057092175  0.8059435347800591  0.8147392223953145  1.0000
  C   C18       1.0  0.33423894293457745  0.3059435350554315  0.68526077745809  1.0000
  C   C19       1.0  0.3342389430761159  0.194056464669196  0.18526077738478852  1.0000
  C   C20       1.0  0.6657610572337134  0.6940564659213162  0.3147392223220128  1.0000
  C   C21       1.0  0.7268439144324446  0.23973596297755137  0.5414390519636207  1.0000
  C   C22       1.0  0.2731560855943077  0.7397359627021789  0.9585609478897837  1.0000
  C   C23       1.0  0.27315608501305855  0.7602640364717037  0.45856094777484735  1.0000
  C   C24       1.0  0.7268439145647589  0.26026403674707616  0.041439052544828436  1.0000
  C   C25       1.0  0.7821741364836008  0.37332783099716027  0.6025205888742197  1.0000
  C   C26       1.0  0.21782586354315148  0.8733278307217877  0.8974794109791848  1.0000
  C   C27       1.0  0.21782586295267817  0.6266721684520947  0.3974794115187576  1.0000
  C   C28       1.0  0.7821741366251393  0.12667216872746725  0.1025205888009181  1.0000
  C   C29       1.0  0.801670967886254  0.3065190820872947  0.6891299759170388  1.0000
  C   C30       1.0  0.1983290321404982  0.8065190833394149  0.8108700239363655  1.0000
  C   C31       1.0  0.19832903155924905  0.6934809173619603  0.31087002382142914  1.0000
  C   C32       1.0  0.8016709680277926  0.1934809176373328  0.1891299758437373  1.0000
  C   C33       1.0  0.8511956819896754  0.4367405909122815  0.7518350382761569  1.0000
  C   C34       1.0  0.14880431803707678  0.936740590636909  0.7481649615772474  1.0000
  C   C35       1.0  0.14880431817861522  0.5632594100644662  0.24816496150394593  1.0000
  C   C36       1.0  0.8511956814084264  0.06325941033983873  0.25183503816122055  1.0000
  C   C37       1.0  0.8702526362169641  0.3736109013630486  0.8396498362135805  1.0000
  C   C38       1.0  0.1297473638097882  0.8736109010876761  0.6603501636398241  1.0000
  C   C39       1.0  0.1297473639513267  0.6263890996136992  0.16035016356652254  1.0000
  C   C40       1.0  0.8702526363585025  0.1263890983615789  0.33964983614027877  1.0000
  C   C41       1.0  0.9152187151871469  0.5045456209725782  0.8997839534129783  1.0000
  C   C42       1.0  0.08478128483960533  0.004545621247950627  0.6002160464404263  1.0000
  C   C43       1.0  0.08478128498114378  0.4954543800041696  0.10021604636712468  1.0000
  C   C44       1.0  0.9152187153286855  0.995454379728797  0.39978395333967665  1.0000
  C   C45       1.0  0.9435004124692179  0.7020284931262755  0.8738728360990079  1.0000
  C   C46       1.0  0.05649958755753436  0.20202849340164797  0.6261271637543966  1.0000
  C   C47       1.0  0.05649958769907281  0.29797150632297953  0.12612716368109508  1.0000
  C   C48       1.0  0.9435004126107565  0.7979715075750997  0.37387283602570626  1.0000
  C   C49       1.0  0.9263676534329794  0.7659327009073188  0.7881700780547487  1.0000
  C   C50       1.0  0.0736323465845486  0.26593269965519856  0.7118299224531651  1.0000
  C   C51       1.0  0.07363234600329947  0.23406730006942897  0.21182992233822862  1.0000
  C   C52       1.0  0.926367653574518  0.7340672997940565  0.2881700779814471  1.0000
  C   C53       1.0  0.8803762218032055  0.6355763236413053  0.7247929696175572  1.0000
  C   C54       1.0  0.11962377821432259  0.13557632391667782  0.7752070308903567  1.0000
  C   C55       1.0  0.11962377835586105  0.3644236758079497  0.27520703081705494  1.0000
  C   C56       1.0  0.880376221944744  0.8644236755325773  0.22479296954425562  1.0000
  C   C57       1.0  0.8624818505886293  0.6971086667150893  0.6359739228093718  1.0000
  C   C58       1.0  0.13751814943812304  0.19710866546296907  0.8640260770440326  1.0000
  C   C59       1.0  0.13751814957043731  0.30289133426165843  0.36402607762524025  1.0000
  C   C60       1.0  0.8624818507301677  0.802891333986286  0.13597392273607034  1.0000
  C   C61       1.0  0.8147653522006231  0.5696209726866133  0.5772010910925579  1.0000
  C   C62       1.0  0.18523464782612925  0.06962097296198573  0.9227989087608467  1.0000
  C   C63       1.0  0.1852346479676677  0.4303790267626418  0.42279890868754505  1.0000
  C   C64       1.0  0.8147653523421614  0.9303790264872693  0.07720109101925632  1.0000
  N   N1        1.0  0.5555658009328603  0.7055424412177856  0.5666161961328526  1.0000
  N   N2        1.0  0.4444341983711044  0.20554244149315812  0.933383803678917  1.0000
  N   N3        1.0  0.4444341985126428  0.2944575582314694  0.4333838036056154  1.0000
  N   N4        1.0  0.5555658010743988  0.794457557956097  0.06661619605955107  1.0000
  N   N5        1.0  0.6396364166544188  0.46031231762639385  0.8553059671160481  1.0000
  N   N6        1.0  0.3603635833723336  0.9603123173510214  0.6446940327373565  1.0000
  N   N7        1.0  0.360363583513872  0.5396876833503539  0.14469403266405484  1.0000
  N   N8        1.0  0.639636416786733  0.03968768209823366  0.35530596769725575  1.0000
  N   N9        1.0  0.6304281353740477  0.7754014693355995  0.7327296472098562  1.0000
  N   N10       1.0  0.36957186464348035  0.27540146808347926  0.7672703532980576  1.0000
  N   N11       1.0  0.3695718647850188  0.22459853164114824  0.26727035322475595  1.0000
  N   N12       1.0  0.6304281355155862  0.7245985313657758  0.23272964713655467  1.0000
  O   O1        1.0  0.5242461874618881  0.372467411158015  0.6029917832374381  1.0000
  O   O2        1.0  0.4757538125648641  0.8724674108826426  0.8970082166159665  1.0000
  O   O3        1.0  0.4757538126971784  0.6275325898187327  0.3970082171971741  1.0000
  O   O4        1.0  0.5242461876034267  0.12753259009410517  0.1029917831641365  1.0000
  O   O5        1.0  0.7039890812531027  0.31710784482779775  0.46333714211192767  1.0000
  O   O6        1.0  0.29601091905672644  0.8171078445524252  0.036662857594873706  1.0000
  O   O7        1.0  0.29601091891518805  0.68289215614895  0.5366628576681752  1.0000
  O   O8        1.0  0.7039890811115642  0.18289215642432247  0.9633371421852293  1.0000
  O   O9        1.0  0.7031468724424956  0.061284667768890404  0.562685173244507  1.0000
  O   O10       1.0  0.2968531275842568  0.5612846674935179  0.9373148266088976  1.0000
  O   O11       1.0  0.29685312772579525  0.9387153316803646  0.43731482653559606  1.0000
  O   O12       1.0  0.7031468725748098  0.43871533195573714  0.06268517382571459  1.0000
  O   O13       1.0  0.7732930584203617  0.12300804824550407  0.7167536754198205  1.0000
  O   O14       1.0  0.22670694160639068  0.6230080479701317  0.783246324433584  1.0000
  O   O15       1.0  0.22670694174792919  0.876991951203751  0.2832463243602824  1.0000
  O   O16       1.0  0.7732930585619  0.37699195147912345  0.2167536753465189  1.0000
