data_image0
_chemical_formula_structural       H20C32O4Br8
_chemical_formula_sum              "H20 C32 O4 Br8"
_cell_length_a       16.32279208427144
_cell_length_b       6.7312355696070245
_cell_length_c       8.378925998219284
_cell_angle_alpha    90.0
_cell_angle_beta     117.797548628088
_cell_angle_gamma    90.0

_space_group_name_H-M_alt    "P 1"
_space_group_IT_number       1

loop_
  _space_group_symop_operation_xyz
  'x, y, z'

loop_
  _atom_site_type_symbol
  _atom_site_label
  _atom_site_symmetry_multiplicity
  _atom_site_fract_x
  _atom_site_fract_y
  _atom_site_fract_z
  _atom_site_occupancy
  H   H1        1.0  0.14573593936553556  0.0  0.47147527994912714  1.0000
  H   H2        1.0  0.8542640607986528  0.0  0.5285247212748274  1.0000
  H   H3        1.0  0.6457359396264932  0.4999999992863848  0.4714752797550706  1.0000
  H   H4        1.0  0.3542640601840905  0.4999999992863848  0.5285247201214549  1.0000
  H   H5        1.0  0.18902003589017932  0.13097144066397137  0.9044965367101337  1.0000
  H   H6        1.0  0.8109799639204044  0.13097144066397137  0.09550346316639166  1.0000
  H   H7        1.0  0.689020036151137  0.6309714414359675  0.9044965365160771  1.0000
  H   H8        1.0  0.3109799642549338  0.6309714414359675  0.09550346329208187  1.0000
  H   H9        1.0  0.8109799639204044  0.8690285593944095  0.09550346316639166  1.0000
  H   H10       1.0  0.18902003589017932  0.8690285593944095  0.9044965367101337  1.0000
  H   H11       1.0  0.3109799642549338  0.3690285586224134  0.09550346329208187  1.0000
  H   H12       1.0  0.689020036151137  0.3690285586224134  0.9044965365160771  1.0000
  H   H13       1.0  0.23926080131664684  0.0  0.7869588356329004  1.0000
  H   H14       1.0  0.760739198493937  0.0  0.21304116424362507  1.0000
  H   H15       1.0  0.7392608015776047  0.4999999992863848  0.7869588354388437  1.0000
  H   H16       1.0  0.26073919823297925  0.4999999992863848  0.2130411644376817  1.0000
  H   H17       1.0  0.03999900264500003  0.0  0.10334979080906777  1.0000
  H   H18       1.0  0.9600009971655838  0.0  0.8966502090674577  1.0000
  H   H19       1.0  0.5399990023104708  0.4999999992863848  0.10334979068337757  1.0000
  H   H20       1.0  0.4600009975001131  0.4999999992863848  0.8966502091931479  1.0000
  C   C1        1.0  0.05766901659560853  0.4999999992863848  0.6952933387205557  1.0000
  C   C2        1.0  0.9423309832149752  0.4999999992863848  0.3047066611559697  1.0000
  C   C3        1.0  0.5576690168565663  0.0  0.6952933385264992  1.0000
  C   C4        1.0  0.44233098354950456  0.0  0.3047066612816599  1.0000
  C   C5        1.0  0.09876529372144635  0.4999999992863848  0.5691974208855846  1.0000
  C   C6        1.0  0.9012347066846245  0.4999999992863848  0.43080257892257445  1.0000
  C   C7        1.0  0.5987652933869171  0.0  0.5691974207598943  1.0000
  C   C8        1.0  0.4012347064236668  0.0  0.43080257911663106  1.0000
  C   C9        1.0  0.04534661104739516  0.4999999992863848  0.38758395215987695  1.0000
  C   C10       1.0  0.9546533887631886  0.4999999992863848  0.6124160477166485  1.0000
  C   C11       1.0  0.5453466110664704  0.0  0.38758395338161594  1.0000
  C   C12       1.0  0.45465338909771796  0.0  0.6124160478423387  1.0000
  C   C13       1.0  0.08296920967116105  0.0  0.4870168888344948  1.0000
  C   C14       1.0  0.9170307901394227  0.0  0.5129831110420305  1.0000
  C   C15       1.0  0.5829692099321188  0.4999999992863848  0.4870168886404382  1.0000
  C   C16       1.0  0.4170307904739521  0.4999999992863848  0.5129831111677209  1.0000
  C   C17       1.0  0.09038733034137936  0.0  0.6551514684981633  1.0000
  C   C18       1.0  0.9096126694692045  0.0  0.34484853137836224  1.0000
  C   C19       1.0  0.5903873306023371  0.4999999992863848  0.6551514683041066  1.0000
  C   C20       1.0  0.40961266920824674  0.4999999992863848  0.3448485315724189  1.0000
  C   C21       1.0  0.9938270901616049  0.0  0.3226038451505619  1.0000
  C   C22       1.0  0.006172910244465875  0.0  0.6773961546575971  1.0000
  C   C23       1.0  0.4938270899006472  0.4999999992863848  0.3226038453446185  1.0000
  C   C24       1.0  0.5061729102635412  0.4999999992863848  0.6773961558793361  1.0000
  C   C25       1.0  0.18214612116257117  0.0  0.8207844026626833  1.0000
  C   C26       1.0  0.8178538792434997  0.0  0.1792155971454758  1.0000
  C   C27       1.0  0.6821461211816465  0.4999999992863848  0.8207844038844221  1.0000
  C   C28       1.0  0.3178538789825419  0.4999999992863848  0.17921559733953246  1.0000
  C   C29       1.0  0.9899293855697496  0.0  0.1598202797797735  1.0000
  C   C30       1.0  0.010070614836321184  0.0  0.8401797200283856  1.0000
  C   C31       1.0  0.48992938530879193  0.4999999992863848  0.1598202799738301  1.0000
  C   C32       1.0  0.5100706145017918  0.4999999992863848  0.8401797199026954  1.0000
  O   O1        1.0  0.10705239218244585  0.4999999992863848  0.8596328830999479  1.0000
  O   O2        1.0  0.892947607628138  0.4999999992863848  0.1403671167765776  1.0000
  O   O3        1.0  0.6070523924434036  0.0  0.8596328829058911  1.0000
  O   O4        1.0  0.39294760796266726  0.0  0.1403671169022678  1.0000
  Br  Br1       1.0  0.22867474156168338  0.4999999992863848  0.6814361032074546  1.0000
  Br  Br2       1.0  0.7713252582489004  0.4999999992863848  0.3185638966690708  1.0000
  Br  Br3       1.0  0.7286747421762457  0.0  0.6814361043608272  1.0000
  Br  Br4       1.0  0.27132525763433807  0.0  0.3185638955156982  1.0000
  Br  Br5       1.0  0.09380281574211004  0.4999999992863848  0.22496169743593583  1.0000
  Br  Br6       1.0  0.9061971846639607  0.4999999992863848  0.7750383023722233  1.0000
  Br  Br7       1.0  0.5938028154075807  0.0  0.22496169731024565  1.0000
  Br  Br8       1.0  0.4061971844030031  0.0  0.7750383025662799  1.0000
