data_image0
_chemical_formula_structural       H12C26O2Br4
_chemical_formula_sum              "H12 C26 O2 Br4"
_cell_length_a       7.203592106549432
_cell_length_b       8.473289195716076
_cell_length_c       9.685388900442476
_cell_angle_alpha    65.20297525608639
_cell_angle_beta     76.70006721594125
_cell_angle_gamma    71.48763174044902

_space_group_name_H-M_alt    "P 1"
_space_group_IT_number       1

loop_
  _space_group_symop_operation_xyz
  'x, y, z'

loop_
  _atom_site_type_symbol
  _atom_site_label
  _atom_site_symmetry_multiplicity
  _atom_site_fract_x
  _atom_site_fract_y
  _atom_site_fract_z
  _atom_site_occupancy
  H   H1        1.0  0.2722916924570458  0.464071388191727  0.01811772316936608  1.0000
  H   H2        1.0  0.727708307493934  0.5359286113387611  0.9818822763888014  1.0000
  H   H3        1.0  0.06993128347598901  0.749649916786947  0.8571894382923501  1.0000
  H   H4        1.0  0.9300687158267096  0.25035008348530036  0.1428105624096186  1.0000
  H   H5        1.0  0.12301852225135619  0.8483987648017451  0.5759305406195152  1.0000
  H   H6        1.0  0.8769814772127815  0.15160123597352085  0.42406945893784054  1.0000
  H   H7        1.0  0.160676482429773  0.9189536435458193  0.35675596588525954  1.0000
  H   H8        1.0  0.8393235173597675  0.08104635548165026  0.6432440348175208  1.0000
  H   H9        1.0  0.2115887356302006  0.008171199841983962  0.0774737058938737  1.0000
  H   H10       1.0  0.7884112643207791  0.9918287996885041  0.9225262936642938  1.0000
  H   H11       1.0  0.46536945729261237  0.8093530429685184  0.9588813035151172  1.0000
  H   H12       1.0  0.5346305421715255  0.19064695780674742  0.041118696042238674  1.0000
  C   C1        1.0  0.1349690785217011  0.36937197859425913  0.4439184737463895  1.0000
  C   C2        1.0  0.8650309207809974  0.6306280216779881  0.5560815269555791  1.0000
  C   C3        1.0  0.09884591396311102  0.3274848774086031  0.5977990125887984  1.0000
  C   C4        1.0  0.9011540872075746  0.6725151216404921  0.4022009881100668  1.0000
  C   C5        1.0  0.9604597976986069  0.45414494476566714  0.6663982585206933  1.0000
  C   C6        1.0  0.0395402017655306  0.545855056009599  0.3336017410366624  1.0000
  C   C7        1.0  0.2954269377544232  0.5048900129141295  0.8939956586097957  1.0000
  C   C8        1.0  0.7045730620351174  0.49510998611334034  0.10600434209298461  1.0000
  C   C9        1.0  0.1825844825184126  0.665567886221812  0.8034746447892572  1.0000
  C   C10       1.0  0.81741551832687  0.33443211457507943  0.19652535476418367  1.0000
  C   C11       1.0  0.21199690921027087  0.7195555016198887  0.6438350964690285  1.0000
  C   C12       1.0  0.7880030919604147  0.28044449742920646  0.3561649042298369  1.0000
  C   C13       1.0  0.35249065040981464  0.6133878408527619  0.5708131471052438  1.0000
  C   C14       1.0  0.6475093509223102  0.38661215869935195  0.42918685244900867  1.0000
  C   C15       1.0  0.3827582662031844  0.6677480683224525  0.4045905913438519  1.0000
  C   C16       1.0  0.6172417332609532  0.3322519324528135  0.595409408213504  1.0000
  C   C17       1.0  0.2723795096748349  0.829557598742743  0.30817443167228664  1.0000
  C   C18       1.0  0.7276204896278637  0.1704424015295043  0.691825569029682  1.0000
  C   C19       1.0  0.3009738810208266  0.8815011823173063  0.14879695315848  1.0000
  C   C20       1.0  0.6990261196630169  0.11849881797656658  0.8512030475395737  1.0000
  C   C21       1.0  0.4409125024017566  0.7712283431461312  0.08268221956808919  1.0000
  C   C22       1.0  0.5590874989303684  0.22877165640598252  0.9173177799861632  1.0000
  C   C23       1.0  0.4417713209124759  0.39344193988609305  0.8260165166003831  1.0000
  C   C24       1.0  0.5582286783902226  0.6065580603861543  0.17398348410158557  1.0000
  C   C25       1.0  0.47070241167762844  0.4466230879221237  0.6629343040487667  1.0000
  C   C26       1.0  0.5292975877865093  0.5533769128531423  0.33706569550858895  1.0000
  O   O1        1.0  0.9273418928480411  0.4141424664346315  0.8062784714927463  1.0000
  O   O2        1.0  0.07265810661609665  0.5858575343406344  0.19372152806460943  1.0000
  Br  Br1       1.0  0.2199674923598939  0.10506360496972125  0.7393172114112743  1.0000
  Br  Br2       1.0  0.7800325074296465  0.8949363940577484  0.2606827892915061  1.0000
  Br  Br3       1.0  0.31064249984527126  0.2076449909177226  0.3580574595744842  1.0000
  Br  Br4       1.0  0.6893574996188665  0.7923550098575434  0.6419425399828715  1.0000
