data_image0
_chemical_formula_structural       H22C161N2O8S2
_chemical_formula_sum              "H22 C161 N2 O8 S2"
_cell_length_a       10.58401673981456
_cell_length_b       10.940818489417689
_cell_length_c       19.070503716559937
_cell_angle_alpha    104.49578448573045
_cell_angle_beta     100.72504685915678
_cell_angle_gamma    93.46101355174049

_space_group_name_H-M_alt    "P 1"
_space_group_IT_number       1

loop_
  _space_group_symop_operation_xyz
  'x, y, z'

loop_
  _atom_site_type_symbol
  _atom_site_label
  _atom_site_symmetry_multiplicity
  _atom_site_fract_x
  _atom_site_fract_y
  _atom_site_fract_z
  _atom_site_occupancy
  H   H1        1.0  0.18614876374889733  0.8405724956496355  0.9006588003867279  1.0000
  H   H2        1.0  0.8138512370588353  0.1594275037206814  0.09934119953035525  1.0000
  H   H3        1.0  0.2452506278186546  0.005748292989616296  0.9331941654699023  1.0000
  H   H4        1.0  0.7547493721337144  0.9942517073285135  0.06680583449335435  1.0000
  H   H5        1.0  0.07462314963003626  0.9567843112287687  0.9155025892396086  1.0000
  H   H6        1.0  0.9253768512842074  0.04321568909163028  0.08449741082419843  1.0000
  H   H7        1.0  0.1380680607195915  0.1523509678813752  0.9968269239990317  1.0000
  H   H8        1.0  0.8619319391262663  0.8476490314866727  0.003173075817500779  1.0000
  H   H9        1.0  0.0766637241524354  0.4763168073558585  0.04323772021157527  1.0000
  H   H10       1.0  0.9233362757999336  0.5236831929622713  0.9567622797516815  1.0000
  H   H11       1.0  0.01645126227681452  0.3134809321550473  0.9943542170546534  1.0000
  H   H12       1.0  0.9835487376755544  0.6865190681630825  0.005645782908603246  1.0000
  H   H13       1.0  0.18668816802610189  0.3654985999541189  0.014862641424700238  1.0000
  H   H14       1.0  0.8133118319262672  0.6345014003640109  0.9851373585385566  1.0000
  H   H15       1.0  0.1330702495495001  0.2982990010006795  0.2281928890766206  1.0000
  H   H16       1.0  0.8669297513647435  0.7017009993197194  0.7718071109871865  1.0000
  H   H17       1.0  0.17687187278976252  0.12171780168570602  0.3681837274738846  1.0000
  H   H18       1.0  0.8231281271626064  0.8782821986324237  0.6318162724893721  1.0000
  H   H19       1.0  0.07863637487646451  0.21166428023176345  0.3178419139554991  1.0000
  H   H20       1.0  0.9213636250759043  0.7883357200863662  0.6821580860077575  1.0000
  H   H21       1.0  0.25220490334407536  0.24235804488387877  0.33590394965754883  1.0000
  H   H22       1.0  0.7477950966082936  0.757641955434251  0.6640960503057078  1.0000
  C   C1        1.0  0.27887949577574994  0.6904884953726506  0.17825197007402954  1.0000
  C   C2        1.0  0.7211205040686381  0.3095115039966822  0.8217480302669046  1.0000
  C   C3        1.0  0.32316332674627013  0.8346140377910073  0.18714239519533957  1.0000
  C   C4        1.0  0.6768366740614624  0.16538596157930946  0.8128576047217434  1.0000
  C   C5        1.0  0.1988531694491801  0.8728640730338858  0.14583976635751716  1.0000
  C   C6        1.0  0.8011468305017192  0.127135927285529  0.854160234130141  1.0000
  C   C7        1.0  0.18176743495246492  0.9987188298770209  0.13415437868719196  1.0000
  C   C8        1.0  0.818232564999904  0.001281170441108991  0.8658456212760647  1.0000
  C   C9        1.0  0.17140581808875177  0.0191520034655216  0.0633361950740669  1.0000
  C   C10       1.0  0.8285941818636173  0.9808479968526083  0.9366638048891898  1.0000
  C   C11       1.0  0.1716199090340138  0.9324486921660002  0.9353158939463408  1.0000
  C   C12       1.0  0.8283800909168856  0.0675513081534146  0.06468410654131744  1.0000
  C   C13       1.0  0.14830018771641548  0.13810126495084343  0.05180439799888123  1.0000
  C   C14       1.0  0.8516998121294422  0.8618987344172043  0.9481956018176514  1.0000
  C   C15       1.0  0.1346636600206568  0.2365755516781424  0.11203041004748236  1.0000
  C   C16       1.0  0.8653363399317122  0.7634244486399875  0.8879695899157742  1.0000
  C   C17       1.0  0.09575607499160868  0.37729110295847273  0.034715751884091435  1.0000
  C   C18       1.0  0.9042439249592905  0.622708897360942  0.9652842486035668  1.0000
  C   C19       1.0  0.14581512777887504  0.21956183265570256  0.18337590913511853  1.0000
  C   C20       1.0  0.8541848720669827  0.7804381667123451  0.8166240906814141  1.0000
  C   C21       1.0  0.16782605590712454  0.10048458762211018  0.19341947704073248  1.0000
  C   C22       1.0  0.832173945007119  0.8995154126982888  0.8065805230230746  1.0000
  C   C23       1.0  0.16993827109248205  0.1683997030226777  0.3234392761852531  1.0000
  C   C24       1.0  0.8300617288598869  0.831600297295452  0.6765607237780036  1.0000
  C   C25       1.0  0.37116687337784143  0.9141251628108763  0.26713588369865565  1.0000
  C   C26       1.0  0.6288331265745276  0.08587483750725333  0.732864116264601  1.0000
  C   C27       1.0  0.4844879295452971  0.9980643118562077  0.2729024574913558  1.0000
  C   C28       1.0  0.5155120703005607  0.001935687511840029  0.7270975423251769  1.0000
  C   C29       1.0  0.5278940691083288  0.9628121061109017  0.20372334663422478  1.0000
  C   C30       1.0  0.47210593084404023  0.03718789420722791  0.7962766533290319  1.0000
  C   C31       1.0  0.4415634761700983  0.856991754750129  0.15461058779532025  1.0000
  C   C32       1.0  0.5584365237808011  0.14300824556928587  0.8453894126923379  1.0000
  C   C33       1.0  0.4912995963900029  0.7601108734986829  0.1097975816488484  1.0000
  C   C34       1.0  0.5087004035623661  0.2398891268194469  0.8902024183144083  1.0000
  C   C35       1.0  0.35511192129688673  0.8709101479699267  0.32748738843327146  1.0000
  C   C36       1.0  0.644888078548971  0.12908985139812115  0.6725126113832611  1.0000
  C   C37       1.0  0.5757235076179039  0.041765901531381454  0.34009481487945364  1.0000
  C   C38       1.0  0.42427649233299547  0.9582340987880332  0.6599051856082045  1.0000
  C   C39       1.0  0.6610673471924545  0.9724486670610665  0.20397834580420787  1.0000
  C   C40       1.0  0.33893265265340333  0.02755133230698119  0.7960216540123246  1.0000
  C   C41       1.0  0.2846921710504084  0.6514917770215288  0.24969838544972559  1.0000
  C   C42       1.0  0.7153078289019607  0.3485082232966011  0.7503016145135312  1.0000
  C   C43       1.0  0.31181380169057327  0.7372049691149938  0.3184664891748328  1.0000
  C   C44       1.0  0.6881861982617957  0.262795031203136  0.681533510788424  1.0000
  C   C45       1.0  0.44981825712678675  0.9125563158353153  0.39631516888917007  1.0000
  C   C46       1.0  0.5501817428255824  0.0874436844828145  0.6036848310740865  1.0000
  C   C47       1.0  0.5578668314460198  0.9976365793340283  0.40295324312428127  1.0000
  C   C48       1.0  0.442133168399838  0.0023634200340194567  0.5970467566922513  1.0000
  C   C49       1.0  0.7129295669664967  0.0483855501462983  0.340038555179881  1.0000
  C   C50       1.0  0.28707043298587226  0.9516144501718314  0.6599614447833756  1.0000
  C   C51       1.0  0.7547376432572499  0.014505206358460289  0.27342441571170184  1.0000
  C   C52       1.0  0.2452623566951192  0.9854947939596695  0.7265755842515549  1.0000
  C   C53       1.0  0.7121059238789302  0.8717938239852566  0.1567638091937497  1.0000
  C   C54       1.0  0.2878940760734388  0.1282061763328732  0.843236190769507  1.0000
  C   C55       1.0  0.6287063722224756  0.76701374822874  0.11087124418060658  1.0000
  C   C56       1.0  0.3712936276233822  0.23298625113930782  0.889128755635926  1.0000
  C   C57       1.0  0.44749229873950574  0.6263543815165441  0.1011431391274513  1.0000
  C   C58       1.0  0.5525077011063523  0.3736456178515036  0.8988568606890813  1.0000
  C   C59       1.0  0.35636851639179673  0.5946398715932277  0.13822752942553695  1.0000
  C   C60       1.0  0.6436314835605722  0.40536012872490207  0.8617724705377198  1.0000
  C   C61       1.0  0.32834742475070433  0.5284166607394121  0.24164985443534429  1.0000
  C   C62       1.0  0.6716525752016647  0.4715833395787178  0.7583501455279124  1.0000
  C   C63       1.0  0.37812767143553033  0.7002094762895906  0.3821324002562392  1.0000
  C   C64       1.0  0.6218723285168386  0.2997905240285392  0.6178675997070175  1.0000
  C   C65       1.0  0.46333295891185444  0.8080703123486781  0.4298865624771067  1.0000
  C   C66       1.0  0.5366670409340034  0.1919296870193697  0.570113437339426  1.0000
  C   C67       1.0  0.6829694189390544  0.978932138326281  0.4423279069568718  1.0000
  C   C68       1.0  0.3170305810133147  0.02106786199184882  0.557672093006385  1.0000
  C   C69       1.0  0.7791473904366572  0.010797686516051721  0.4034399078851394  1.0000
  C   C70       1.0  0.22085260940920057  0.9892023128519961  0.5965600919313933  1.0000
  C   C71       1.0  0.8640698001601822  0.9418702498325466  0.2681632763737233  1.0000
  C   C72       1.0  0.13593019979218682  0.05812975048558313  0.7318367235895334  1.0000
  C   C73       1.0  0.8372146449861085  0.8529812259936965  0.19602163201922154  1.0000
  C   C74       1.0  0.162785355928135  0.14701877432670246  0.8039783680445854  1.0000
  C   C75       1.0  0.6687307727138876  0.6410548721760856  0.10209440105135037  1.0000
  C   C76       1.0  0.3312692272384813  0.35894512814204416  0.8979055989119064  1.0000
  C   C77       1.0  0.5572069215833977  0.5542973648705107  0.09598360661623442  1.0000
  C   C78       1.0  0.442793079330846  0.44570263544988814  0.9040163934475726  1.0000
  C   C79       1.0  0.3720473095181549  0.4934907483974567  0.17299879270049848  1.0000
  C   C80       1.0  0.6279526904342142  0.5065092519206732  0.8270012072627582  1.0000
  C   C81       1.0  0.38456526413492437  0.4845712654657779  0.3033552558709382  1.0000
  C   C82       1.0  0.6154347357109334  0.51542873390227  0.6966447439455945  1.0000
  C   C83       1.0  0.41049795429941865  0.5743971207647395  0.3767139705375544  1.0000
  C   C84       1.0  0.5895020455464391  0.42560287860330825  0.6232860292789782  1.0000
  C   C85       1.0  0.5830443007238609  0.7931663572849063  0.4735298468711272  1.0000
  C   C86       1.0  0.41695569912199704  0.20683364208314145  0.5264701529454054  1.0000
  C   C87       1.0  0.696999123950678  0.881426070668192  0.4794502587352477  1.0000
  C   C88       1.0  0.303000876001691  0.11857392964993779  0.520549741228009  1.0000
  C   C89       1.0  0.8914150239129278  0.9457843307694487  0.4008421183485727  1.0000
  C   C90       1.0  0.10858497603944116  0.054215669548681095  0.5991578816146841  1.0000
  C   C91       1.0  0.9358364738451785  0.9103875873289036  0.3308518318137838  1.0000
  C   C92       1.0  0.06416352600067939  0.08961241203914412  0.6691481680027488  1.0000
  C   C93       1.0  0.8810727379785281  0.7309229158134962  0.18502300411678643  1.0000
  C   C94       1.0  0.11892726197384076  0.2690770845046337  0.8149769958464702  1.0000
  C   C95       1.0  0.7947007037574089  0.6209308845107154  0.13583712988714988  1.0000
  C   C96       1.0  0.20529929619349052  0.37906911580869934  0.8641628706005083  1.0000
  C   C97       1.0  0.5691411441718424  0.445849134372958  0.12411030797133088  1.0000
  C   C98       1.0  0.43085885567401544  0.5541508649950897  0.8758896918452017  1.0000
  C   C99       1.0  0.47246122875898094  0.41391837293219935  0.16422935374726105  1.0000
  C   C100      1.0  0.5275387711933881  0.5860816273859305  0.8357706462159956  1.0000
  C   C101      1.0  0.46484475954726173  0.38548588453791516  0.28912746505195125  1.0000
  C   C102      1.0  0.5351552404051072  0.6145141157802146  0.7108725349113054  1.0000
  C   C103      1.0  0.5160596617964194  0.5598098886405715  0.431016257595343  1.0000
  C   C104      1.0  0.4839403380479688  0.44019011072876124  0.5689837427455912  1.0000
  C   C105      1.0  0.6012346153832645  0.6680041874214508  0.47897461160577165  1.0000
  C   C106      1.0  0.3987653845691046  0.3319958128966789  0.521025388357485  1.0000
  C   C107      1.0  0.8209540872531836  0.8372521209390128  0.4894976254255087  1.0000
  C   C108      1.0  0.17904591269918543  0.16274787937911692  0.510502374537748  1.0000
  C   C109      1.0  0.9170843936998241  0.8690738578191642  0.4507889361870199  1.0000
  C   C110      1.0  0.08291560614603365  0.13092614154888355  0.5492110636295127  1.0000
  C   C111      1.0  0.0020379029228680566  0.8004641442313796  0.31603187631210594  1.0000
  C   C112      1.0  0.99796209692152  0.1995358551379531  0.6839681240288281  1.0000
  C   C113      1.0  0.9742769710816962  0.7117454553660065  0.24403123332924237  1.0000
  C   C114      1.0  0.025723029726036167  0.28825454400431044  0.7559687665878406  1.0000
  C   C115      1.0  0.8083312688834431  0.4994812621027117  0.14884056010054217  1.0000
  C   C116      1.0  0.19166873203080048  0.5005187382176873  0.8511594399632649  1.0000
  C   C117      1.0  0.6965863724920124  0.41301450974122345  0.14323235078148572  1.0000
  C   C118      1.0  0.30341362746035666  0.5869854905769064  0.8567676491817711  1.0000
  C   C119      1.0  0.5082592159614505  0.3504751761189134  0.22022349251257986  1.0000
  C   C120      1.0  0.4917407839894489  0.6495248242005015  0.7797765079750782  1.0000
  C   C121      1.0  0.5659425799614954  0.36760496311833896  0.34684317879518745  1.0000
  C   C122      1.0  0.4340574198843624  0.6323950362497087  0.6531568210213451  1.0000
  C   C123      1.0  0.5911698178838072  0.45347780974214913  0.41683618537809936  1.0000
  C   C124      1.0  0.4088301819620506  0.5465221896258986  0.5831638144384332  1.0000
  C   C125      1.0  0.7292771400983252  0.6284124861461083  0.4946450098068893  1.0000
  C   C126      1.0  0.2707228597475325  0.3715875132219395  0.5053549900096432  1.0000
  C   C127      1.0  0.8374151199421278  0.7117850550662743  0.4994728118131939  1.0000
  C   C128      1.0  0.16258488000877172  0.2882149452531405  0.5005271886744643  1.0000
  C   C129      1.0  0.993321643735537  0.7633350431708498  0.4368537391291495  1.0000
  C   C130      1.0  0.006678356216831989  0.23666495714727992  0.5631462608341073  1.0000
  C   C131      1.0  0.03516422974975209  0.7292616899567818  0.37028709804168725  1.0000
  C   C132      1.0  0.9648357702026169  0.27073831036134804  0.6297129019215695  1.0000
  C   C133      1.0  0.9915729010395025  0.5861110295001701  0.2532753698883893  1.0000
  C   C134      1.0  0.0084270989128666  0.4138889708179596  0.7467246300748674  1.0000
  C   C135      1.0  0.9099303687717188  0.48143579086342514  0.20641445996757662  1.0000
  C   C136      1.0  0.0900696310741389  0.5185642085046227  0.793585539848956  1.0000
  C   C137      1.0  0.7288884685036066  0.34163490416925024  0.19737093794319563  1.0000
  C   C138      1.0  0.27111153144729294  0.6583650961501646  0.8026290625444626  1.0000
  C   C139      1.0  0.636073332019502  0.3108460097248617  0.23527072276054015  1.0000
  C   C140      1.0  0.3639266687882305  0.6891539896454553  0.7647292771565428  1.0000
  C   C141      1.0  0.6723926954293847  0.32072973667703303  0.3137577314208758  1.0000
  C   C142      1.0  0.32760730548338945  0.6792702636446509  0.6862422691673328  1.0000
  C   C143      1.0  0.7235918880463554  0.49499134311153536  0.4567247405445696  1.0000
  C   C144      1.0  0.2764081119060136  0.5050086572065944  0.543275259418687  1.0000
  C   C145      1.0  0.944759340362733  0.6657591244734684  0.4673227765383127  1.0000
  C   C146      1.0  0.055240659483124906  0.3342408748945794  0.5326772232782199  1.0000
  C   C147      1.0  0.029969274039539254  0.5962241684674701  0.33164442129370636  1.0000
  C   C148      1.0  0.9700307258063186  0.4037758309005777  0.6683555785228263  1.0000
  C   C149      1.0  0.8618604802981252  0.38260745608648616  0.23630236449291067  1.0000
  C   C150      1.0  0.138139519546263  0.6173925432828467  0.7636976358480235  1.0000
  C   C151      1.0  0.8002935704713218  0.3609241747640099  0.3516805379173343  1.0000
  C   C152      1.0  0.1997064303364108  0.6390758246063071  0.6483194619997488  1.0000
  C   C153      1.0  0.8263273073158205  0.4503641623589819  0.42450730418911786  1.0000
  C   C154      1.0  0.1736726926365483  0.5496358379591478  0.5754926957741389  1.0000
  C   C155      1.0  0.9390658292971236  0.5371925614146084  0.4299771546048918  1.0000
  C   C156      1.0  0.060934170548734276  0.4628074379534394  0.5700228452116408  1.0000
  C   C157      1.0  0.983376439644024  0.501319130089659  0.36090543022344823  1.0000
  C   C158      1.0  0.016623560308344998  0.4986808702284708  0.6390945697398085  1.0000
  C   C159      1.0  0.8972368968085952  0.3923713995501021  0.3122215679964311  1.0000
  C   C160      1.0  0.10276310303726245  0.6076285998179457  0.6877784318201015  1.0000
  C   C161      1.0  0.49999999991611493  0.9999999995716194  5.826850113521687e-11  1.0000
  N   N1        1.0  0.10777811406413863  0.7810614842842821  0.1188909461204439  1.0000
  N   N2        1.0  0.8922218858882304  0.21893851603384767  0.8811090538428127  1.0000
  O   O1        1.0  0.14397358681984104  0.6694225854483228  0.1340688789845862  1.0000
  O   O2        1.0  0.8560264131325279  0.330577414869807  0.8659311209786705  1.0000
  O   O3        1.0  0.1854298673976772  0.9171824153096606  0.008675813325453264  1.0000
  O   O4        1.0  0.814570132554692  0.08281758500846938  0.9913241866378034  1.0000
  O   O5        1.0  0.10798181500543864  0.3539707700470615  0.10622470661936699  1.0000
  O   O6        1.0  0.8920181859088049  0.6460292302733375  0.89377529344444  1.0000
  O   O7        1.0  0.17276005867567204  0.06980280013217231  0.2588109404803794  1.0000
  O   O8        1.0  0.8272399411701857  0.9301971992358755  0.7411890593361532  1.0000
  S   S1        1.0  0.5208487726526301  0.8762776814500289  0.9442756009979985  1.0000
  S   S2        1.0  0.47915122719322784  0.1237223179180189  0.05572439881853417  1.0000
