data_image0
_chemical_formula_structural       H92C80N4O24F12P2
_chemical_formula_sum              "H92 C80 N4 O24 F12 P2"
_cell_length_a       11.326720601869047
_cell_length_b       11.487618478806741
_cell_length_c       15.973710394303572
_cell_angle_alpha    80.48365075175015
_cell_angle_beta     84.98889592953685
_cell_angle_gamma    89.32308047082333

_space_group_name_H-M_alt    "P 1"
_space_group_IT_number       1

loop_
  _space_group_symop_operation_xyz
  'x, y, z'

loop_
  _atom_site_type_symbol
  _atom_site_label
  _atom_site_symmetry_multiplicity
  _atom_site_fract_x
  _atom_site_fract_y
  _atom_site_fract_z
  _atom_site_occupancy
  H   H1        1.0  0.9515315437788159  0.8159423965421309  0.8549334860407193  1.0000
  H   H2        1.0  0.048468456495709474  0.18405760374145466  0.14506651372531554  1.0000
  H   H3        1.0  0.9844496502542144  0.018394785038254084  0.7696022975553501  1.0000
  H   H4        1.0  0.015550349938881786  0.9816052150957076  0.2303977028478259  1.0000
  H   H5        1.0  0.928722730011241  0.19464768481378017  0.839630623588469  1.0000
  H   H6        1.0  0.07127727026328436  0.8053523154698053  0.16036937617756578  1.0000
  H   H7        1.0  0.6774569553931967  0.3273853167137103  0.06943834029914188  1.0000
  H   H8        1.0  0.32254304479989937  0.6726146834202515  0.9305616601040342  1.0000
  H   H9        1.0  0.7850869540326204  0.2852431313458795  0.14403206547813982  1.0000
  H   H10       1.0  0.21491304535950564  0.714756868935367  0.8559679342844666  1.0000
  H   H11       1.0  0.7386444300339194  0.09898099228251739  0.2554142311274898  1.0000
  H   H12       1.0  0.26135557024060607  0.901019008001068  0.744585768638545  1.0000
  H   H13       1.0  0.31390494192742624  0.1884930096255075  0.22057926792154028  1.0000
  H   H14       1.0  0.6860950573832706  0.8115069905061155  0.7794207324782074  1.0000
  H   H15       1.0  0.4705575435224191  0.2939782108170297  0.11895792933870426  1.0000
  H   H16       1.0  0.529442456670677  0.7060217893169323  0.8810420710644717  1.0000
  H   H17       1.0  0.21220471842686042  0.040545537491641574  0.2757066254305905  1.0000
  H   H18       1.0  0.7877952817802101  0.9594544617724456  0.7242933749696385  1.0000
  H   H19       1.0  0.21507706957627784  0.12210030904661776  0.3608295282805171  1.0000
  H   H20       1.0  0.7849229306307925  0.8778996902174695  0.6391704721197117  1.0000
  H   H21       1.0  0.2050656773630824  0.9044389184031408  0.45532026733454806  1.0000
  H   H22       1.0  0.7949343220290436  0.0955610818781058  0.5446797324280583  1.0000
  H   H23       1.0  0.07400387892414174  0.975609893607008  0.41832725530505716  1.0000
  H   H24       1.0  0.9259961213643579  0.024390105806702582  0.5816727444580305  1.0000
  H   H25       1.0  0.001261020679653876  0.7676922751511258  0.4294094273772284  1.0000
  H   H26       1.0  0.9987389787124721  0.23230772513012074  0.570590572385378  1.0000
  H   H27       1.0  0.14329755984968645  0.7073914245919266  0.4492664036184401  1.0000
  H   H28       1.0  0.856702440438813  0.29260857482178415  0.5507335961446477  1.0000
  H   H29       1.0  0.028976422868977034  0.5765001512243996  0.3783234327495386  1.0000
  H   H30       1.0  0.9710235764417198  0.42349984890722353  0.6216765676502091  1.0000
  H   H31       1.0  0.00561330909037118  0.6934377562479815  0.29282402561625065  1.0000
  H   H32       1.0  0.9943866911981285  0.3065622431657291  0.7071759741468371  1.0000
  H   H33       1.0  0.0916935303579315  0.5550581762245976  0.21122047125671306  1.0000
  H   H34       1.0  0.9083064699165937  0.444941824058988  0.7887795285093216  1.0000
  H   H35       1.0  0.1718822861011298  0.45660604924626086  0.2840726832558308  1.0000
  H   H36       1.0  0.8281177141733956  0.5433939510373246  0.715927316510204  1.0000
  H   H37       1.0  0.26848295265504557  0.4953892701808964  0.1343638199802522  1.0000
  H   H38       1.0  0.7315170476194796  0.504610730102689  0.8656361797857826  1.0000
  H   H39       1.0  0.2799159685176526  0.6481903056594692  0.1417149046501974  1.0000
  H   H40       1.0  0.7200840317708469  0.3518096937542413  0.8582850951128903  1.0000
  H   H41       1.0  0.7809571009282038  0.49321045075509495  0.2039444177736741  1.0000
  H   H42       1.0  0.21904289847789654  0.5067895486562767  0.7960555819859852  1.0000
  H   H43       1.0  0.6247747063540254  0.6219643094294899  0.9712725381661454  1.0000
  H   H44       1.0  0.37522529295667123  0.37803569070213316  0.028727462233602178  1.0000
  H   H45       1.0  0.4251552417719035  0.6108079401879684  0.049062265088940044  1.0000
  H   H46       1.0  0.5748447585026217  0.389192060095617  0.9509377346770947  1.0000
  H   H47       1.0  0.9059043019998763  0.5450154295640771  0.08010033092771136  1.0000
  H   H48       1.0  0.09409569827464906  0.4549845707195082  0.9198996688383233  1.0000
  H   H49       1.0  0.8462569543221146  0.5005376525378128  0.9902756872097671  1.0000
  H   H50       1.0  0.1537430459524106  0.49946234774577264  0.009724312556267701  1.0000
  H   H51       1.0  0.7363442751864703  0.0457956069773404  0.40074028978940124  1.0000
  H   H52       1.0  0.2636557250066257  0.9542043931566218  0.5992597106137747  1.0000
  H   H53       1.0  0.7599503012724869  0.9336281841217244  0.3361963803963257  1.0000
  H   H54       1.0  0.24004969803821002  0.06637181600989854  0.6638036200034219  1.0000
  H   H55       1.0  0.8004204890156879  0.8849214232587915  0.4944645643022505  1.0000
  H   H56       1.0  0.19957951037643826  0.11507857702245498  0.505535435460356  1.0000
  H   H57       1.0  0.6429551464495686  0.8789605992361486  0.5176361497941531  1.0000
  H   H58       1.0  0.35704485286112825  0.12103940089547449  0.4823638506055945  1.0000
  H   H59       1.0  0.6621930366709795  0.6664827488056226  0.57049432171835  1.0000
  H   H60       1.0  0.3378069636035458  0.3335172514779629  0.4295056780476848  1.0000
  H   H61       1.0  0.8187425902788107  0.6840894148946821  0.5463868536055286  1.0000
  H   H62       1.0  0.1812574099957147  0.3159105853889034  0.45361314616050613  1.0000
  H   H63       1.0  0.8088315112892748  0.5482308707514987  0.43755903129836654  1.0000
  H   H64       1.0  0.19116848898525066  0.4517691295320868  0.5624409684676681  1.0000
  H   H65       1.0  0.7732796599810213  0.4809917381088827  0.5459704214975344  1.0000
  H   H66       1.0  0.22672033941110475  0.5190082621723638  0.454029578265072  1.0000
  H   H67       1.0  0.5349043259086979  0.37519697250677664  0.45162679950885964  1.0000
  H   H68       1.0  0.4650956743658274  0.6248030277768089  0.5483732002571751  1.0000
  H   H69       1.0  0.6847946787514384  0.3403846273365767  0.47387520112442816  1.0000
  H   H70       1.0  0.3152053205592585  0.6596153727950462  0.5261247992753195  1.0000
  H   H71       1.0  0.7465093502620216  0.4767126912685129  0.331700321278928  1.0000
  H   H72       1.0  0.2534906490486751  0.52328730886311  0.6682996791208198  1.0000
  H   H73       1.0  0.6842201189860195  0.337311425727639  0.3255227330378649  1.0000
  H   H74       1.0  0.31577988128850587  0.6626885745559464  0.6744772667281699  1.0000
  H   H75       1.0  0.41732317440191735  0.7832920860656036  0.40014419324138856  1.0000
  H   H76       1.0  0.5826768249902087  0.21670791421564295  0.5998558065212178  1.0000
  H   H77       1.0  0.5294026899618436  0.6747829382318143  0.385664858502917  1.0000
  H   H78       1.0  0.47059730943028255  0.3252170620494321  0.6143351412596895  1.0000
  H   H79       1.0  0.38103177780130904  0.6506235424846268  0.36085563923094105  1.0000
  H   H80       1.0  0.618968221590817  0.3493764577966196  0.6391443605316655  1.0000
  H   H81       1.0  0.6573114324285301  0.7574122981231194  0.2809333405897451  1.0000
  H   H82       1.0  0.34268856784599533  0.24258770216046613  0.7190666591762895  1.0000
  H   H83       1.0  0.7078134880504449  0.8701394835284192  0.13365489983927575  1.0000
  H   H84       1.0  0.2921865122240805  0.12986051675516624  0.8663450999267589  1.0000
  H   H85       1.0  0.33131168687521684  0.9184657927118486  0.11363174908224016  1.0000
  H   H86       1.0  0.6686883133993085  0.08153420757173689  0.8863682506837945  1.0000
  H   H87       1.0  0.2971012148645731  0.8061469053725046  0.2613262887464804  1.0000
  H   H88       1.0  0.7028987854099522  0.19385309491108096  0.7386737110195545  1.0000
  H   H89       1.0  0.5857588541607093  0.9011952779791512  0.9807651630761808  1.0000
  H   H90       1.0  0.414241146113816  0.09880472230443413  0.01923483668985393  1.0000
  H   H91       1.0  0.6261810401660308  0.025716154666409818  0.0225919585137543  1.0000
  H   H92       1.0  0.37381895922609526  0.9742838456148366  0.9774080412488522  1.0000
  C   C1        1.0  0.8829037114761732  0.8848535644738111  0.9680005313377812  1.0000
  C   C2        1.0  0.11709628879835221  0.11514643580977431  0.03199946842825362  1.0000
  C   C3        1.0  0.9293819701039604  0.8945430575738772  0.8828309250735873  1.0000
  C   C4        1.0  0.07061803010310998  0.10545694169020996  0.11716907532664156  1.0000
  C   C5        1.0  0.9471752336040606  0.007264444971757467  0.835465689236572  1.0000
  C   C6        1.0  0.052824766684439146  0.992735554441953  0.1645343105265157  1.0000
  C   C7        1.0  0.9157473939032159  0.10499353242163269  0.8735511896497976  1.0000
  C   C8        1.0  0.08425260637130959  0.8950064678619528  0.12644881011623713  1.0000
  C   C9        1.0  0.8659379350138953  0.08572270943157845  0.9580496701680136  1.0000
  C   C10       1.0  0.13406206517920075  0.9142772907023836  0.04195033023516245  1.0000
  C   C11       1.0  0.8274755459142098  0.19054840543597346  0.9986722435479836  1.0000
  C   C12       1.0  0.1725244543742899  0.8094515939777371  0.0013277562151041112  1.0000
  C   C13       1.0  0.7095972844743914  0.2543518512228127  0.11497422954159134  1.0000
  C   C14       1.0  0.2904027158001339  0.7456481490607729  0.8850257702244434  1.0000
  C   C15       1.0  0.6139419577228985  0.20035726887585698  0.17939263730779967  1.0000
  C   C16       1.0  0.38605804256560117  0.7996427305378536  0.8206073624552881  1.0000
  C   C17       1.0  0.6451635372872336  0.11632868653048337  0.2480789969156246  1.0000
  C   C18       1.0  0.3548364629058624  0.8836713136034787  0.7519210034875513  1.0000
  C   C19       1.0  0.5585244831176424  0.05469189059781787  0.30489356642890614  1.0000
  C   C20       1.0  0.44147551717085737  0.9453081088158928  0.6951064333341817  1.0000
  C   C21       1.0  0.4369077724647547  0.07778936362818258  0.2934009409127517  1.0000
  C   C22       1.0  0.5630922277423158  0.9222106356359046  0.7065990594874771  1.0000
  C   C23       1.0  0.4064985280820348  0.1661813619904797  0.2278269774266776  1.0000
  C   C24       1.0  0.5935014722064648  0.8338186374232309  0.7721730223364102  1.0000
  C   C25       1.0  0.49493562999656976  0.2260277866349967  0.17052256639692226  1.0000
  C   C26       1.0  0.5050643702919299  0.7739722127787139  0.8294774333661655  1.0000
  C   C27       1.0  0.23392356799675723  0.03574101024536059  0.3419961730399566  1.0000
  C   C28       1.0  0.7660764321963388  0.9642589898886016  0.6580038273632193  1.0000
  C   C29       1.0  0.1603002295701153  0.9395217109369584  0.39774151117531475  1.0000
  C   C30       1.0  0.8396997706229808  0.0604782891970035  0.6022584892278612  1.0000
  C   C31       1.0  0.08758082176492445  0.7455552223848098  0.39825114920543825  1.0000
  C   C32       1.0  0.9124191775457724  0.2544447777468132  0.6017488511943094  1.0000
  C   C33       1.0  0.06835036373363379  0.6578739816965324  0.34008239593385053  1.0000
  C   C34       1.0  0.9316496365408915  0.3421260185870529  0.6599176038321843  1.0000
  C   C35       1.0  0.17330610684081718  0.5450238814463803  0.24493011399328163  1.0000
  C   C36       1.0  0.8266938925513089  0.4549761188348663  0.7550698857693249  1.0000
  C   C37       1.0  0.27757487190641916  0.5583506921004526  0.17866174858821696  1.0000
  C   C38       1.0  0.722425127485707  0.441649308180794  0.8213382511743895  1.0000
  C   C39       1.0  0.4889093282404204  0.5460717546114162  0.17147876561529443  1.0000
  C   C40       1.0  0.5110906710702763  0.4539282455202069  0.8285212347844533  1.0000
  C   C41       1.0  0.5908078354459009  0.5130488858391583  0.21562667736453178  1.0000
  C   C42       1.0  0.40919216476116943  0.4869511134249288  0.7843733230356972  1.0000
  C   C43       1.0  0.7023917233070315  0.519098599491602  0.17080008220991322  1.0000
  C   C44       1.0  0.29760827696749387  0.48090140079198346  0.8291999175561215  1.0000
  C   C45       1.0  0.7154422841571254  0.5582583392201292  0.08259857208926136  1.0000
  C   C46       1.0  0.2845577160359706  0.4417416609138327  0.9174014283139147  1.0000
  C   C47       1.0  0.6153141945818528  0.5917089242111293  0.03983047580897005  1.0000
  C   C48       1.0  0.3846858056926726  0.4082910760724561  0.9601695239570647  1.0000
  C   C49       1.0  0.5024519666425995  0.5860749208874427  0.0838965218620882  1.0000
  C   C50       1.0  0.4975480327495267  0.41392507939380363  0.9161034779005182  1.0000
  C   C51       1.0  0.8368444569522453  0.5629225520395574  0.035562697331354934  1.0000
  C   C52       1.0  0.16315554235845164  0.43707744809206556  0.9644373030683927  1.0000
  C   C53       1.0  0.8687617700645809  0.7679431597382397  0.02601568464063599  1.0000
  C   C54       1.0  0.1312382293275452  0.23205684054300693  0.9739843151219705  1.0000
  C   C55       1.0  0.7045806070228815  0.9596645503132354  0.3903461856231078  1.0000
  C   C56       1.0  0.2954193931702146  0.04033544982072651  0.6096538147800682  1.0000
  C   C57       1.0  0.7158346110709762  0.8688549685341135  0.46860700317810955  1.0000
  C   C58       1.0  0.28416538920354906  0.1311450317494721  0.5313929965879252  1.0000
  C   C59       1.0  0.7354222979305598  0.6655861867890019  0.519935584001933  1.0000
  C   C60       1.0  0.26457770227651056  0.334413812475085  0.48006441639829595  1.0000
  C   C61       1.0  0.7429322581107123  0.5459497485924208  0.49315084350488514  1.0000
  C   C62       1.0  0.257067742163813  0.45405025169116464  0.5068491562611496  1.0000
  C   C63       1.0  0.626882740448251  0.4068043159045015  0.44012058912620283  1.0000
  C   C64       1.0  0.37311725982627436  0.5931956843790841  0.5598794106398319  1.0000
  C   C65       1.0  0.6652935385847156  0.4228093370476959  0.34596933852505896  1.0000
  C   C66       1.0  0.33470646080741034  0.5771906632335505  0.6540306612375476  1.0000
  C   C67       1.0  0.44935423052020906  0.7169359672664901  0.36158910642615477  1.0000
  C   C68       1.0  0.5506457687904878  0.2830640328651328  0.6384108939735929  1.0000
  C   C69       1.0  0.5899173631936022  0.7946192371490075  0.23981018389797196  1.0000
  C   C70       1.0  0.41008263708092313  0.2053807631345779  0.7601898158680628  1.0000
  C   C71       1.0  0.6154541312435255  0.8570043669662032  0.1586308138082229  1.0000
  C   C72       1.0  0.3845458681486005  0.14299563331504345  0.8413691859543835  1.0000
  C   C73       1.0  0.5232193644003419  0.9022291828055712  0.10952280732470929  1.0000
  C   C74       1.0  0.4767806358881578  0.09777081660813952  0.8904771924383785  1.0000
  C   C75       1.0  0.40709086526149696  0.8839874438106133  0.14706360290599166  1.0000
  C   C76       1.0  0.5929091349315991  0.11601255632334868  0.8529363974971843  1.0000
  C   C77       1.0  0.38550221176408483  0.8223516358317721  0.22887311908472024  1.0000
  C   C78       1.0  0.6144977876280413  0.1776483644494744  0.7711268806778863  1.0000
  C   C79       1.0  0.5514767532460813  0.9665044047180229  0.020316677448597813  1.0000
  C   C80       1.0  0.4485232470284441  0.033495595565562426  0.979683322317437  1.0000
  N   N1        1.0  0.8506944754536518  0.9781943096657383  0.0050949275758873465  1.0000
  N   N2        1.0  0.14930552473944417  0.021805690468223744  0.9949050728272887  1.0000
  N   N3        1.0  0.476341829576202  0.7783965276897801  0.2737488205541293  1.0000
  N   N4        1.0  0.523658170616894  0.22160347244418194  0.7262511798490466  1.0000
  O   O1        1.0  0.85869471288019  0.2922262063944954  0.9692483387292821  1.0000
  O   O2        1.0  0.14130528740830975  0.7077737930192152  0.030751661033805715  1.0000
  O   O3        1.0  0.7535292119646375  0.15942038442563528  0.06876042399618898  1.0000
  O   O4        1.0  0.24647078832386204  0.8405796149880754  0.9312395757668989  1.0000
  O   O5        1.0  0.3576736429152299  0.008453793831004012  0.34868681500493764  1.0000
  O   O6        1.0  0.6423263564908704  0.9915462055803678  0.6513131847547218  1.0000
  O   O7        1.0  0.1435838619552237  0.8481004397471753  0.3488886141249164  1.0000
  O   O8        1.0  0.8564161383193016  0.15189956053641024  0.6511113856411184  1.0000
  O   O9        1.0  0.17976338788206125  0.6342384406664019  0.29712835883439237  1.0000
  O   O10       1.0  0.820236612392464  0.36576155961718354  0.7028716409316423  1.0000
  O   O11       1.0  0.38383852567641635  0.5346053274868123  0.2208821869563483  1.0000
  O   O12       1.0  0.6161614737157096  0.46539467279443425  0.7791178128062581  1.0000
  O   O13       1.0  0.8601127235295831  0.6780001814738634  0.9820550607164928  1.0000
  O   O14       1.0  0.1398872767589166  0.32199981793984706  0.01794493904659487  1.0000
  O   O15       1.0  0.8646544193984463  0.7562289579668364  0.10367250012954475  1.0000
  O   O16       1.0  0.13534558087607912  0.24377104231674904  0.8963274996364899  1.0000
  O   O17       1.0  0.5823111797599134  0.9697427948717288  0.37189441748426805  1.0000
  O   O18       1.0  0.4176888205146118  0.03025720541185661  0.6281055822817667  1.0000
  O   O19       1.0  0.7161734220057785  0.7529673857431838  0.44741207481078255  1.0000
  O   O20       1.0  0.28382657730491834  0.24703261438843915  0.5525879255889652  1.0000
  O   O21       1.0  0.6283235251077055  0.514474811816036  0.47373861822792757  1.0000
  O   O22       1.0  0.3716764742844204  0.4855251884652105  0.5262613815346789  1.0000
  O   O23       1.0  0.5697704714498543  0.47912882330618817  0.30122179275802535  1.0000
  O   O24       1.0  0.43022952882467097  0.5208711769773973  0.6987782070080094  1.0000
  F   F1        1.0  0.02720570626467214  0.18754455374059822  0.4223548962529604  1.0000
  F   F2        1.0  0.9727942931274539  0.8124554465406483  0.577645103509646  1.0000
  F   F3        1.0  0.8324162430009671  0.22408264567991817  0.39436842027285524  1.0000
  F   F4        1.0  0.16758375728753264  0.7759173537337924  0.6056315794902326  1.0000
  F   F5        1.0  0.8951034846570104  0.30553406899536656  0.254293070601075  1.0000
  F   F6        1.0  0.10489651553608573  0.6944659311385956  0.745706929802101  1.0000
  F   F7        1.0  0.08948837249770676  0.2676141938747149  0.2828228089319405  1.0000
  F   F8        1.0  0.9105116277768185  0.7323858064088705  0.7171771908340943  1.0000
  F   F9        1.0  0.950723172885884  0.11594202364268132  0.3107657466499776  1.0000
  F   F10       1.0  0.04927682730721203  0.8840579764912805  0.6892342537531984  1.0000
  F   F11       1.0  0.9693101645605939  0.3767334747774229  0.36693334365413655  1.0000
  F   F12       1.0  0.03068983571393126  0.6232665255061626  0.6330666561118982  1.0000
  P   P1        1.0  0.9607976589458161  0.24677267564085675  0.3384995914318008  1.0000
  P   P2        1.0  0.03920234124727981  0.7532273244931053  0.6615004089713752  1.0000
