data_image0
_chemical_formula_structural       H56C120N16
_chemical_formula_sum              "H56 C120 N16"
_cell_length_a       7.768848919823438
_cell_length_b       30.03370036573419
_cell_length_c       8.565078945800177
_cell_angle_alpha    90.0
_cell_angle_beta     92.95031202541001
_cell_angle_gamma    90.0

_space_group_name_H-M_alt    "P 1"
_space_group_IT_number       1

loop_
  _space_group_symop_operation_xyz
  'x, y, z'

loop_
  _atom_site_type_symbol
  _atom_site_label
  _atom_site_symmetry_multiplicity
  _atom_site_fract_x
  _atom_site_fract_y
  _atom_site_fract_z
  _atom_site_occupancy
  H   H1        1.0  0.2550615082915957  0.4734583416908372  0.44843908912423985  1.0000
  H   H2        1.0  0.7449384909536946  0.9734583415953746  0.051560911180152005  1.0000
  H   H3        1.0  0.7449384917956228  0.5265416584511969  0.5515609104195508  1.0000
  H   H4        1.0  0.2550615091506179  0.02654165854665952  0.9484390895318655  1.0000
  H   H5        1.0  0.40592922183492663  0.32678841802649367  0.6958806014531119  1.0000
  H   H6        1.0  0.594070777822527  0.8267884179310311  0.8041193984536217  1.0000
  H   H7        1.0  0.5940707782522917  0.6732115821155404  0.3041193980906786  1.0000
  H   H8        1.0  0.4059292222817855  0.17321158221100305  0.19588060225839593  1.0000
  H   H9        1.0  0.6426957901985868  0.2095291064160607  0.35281521964840035  1.0000
  H   H10       1.0  0.3573042090467034  0.7095291063205981  0.14718478065599147  1.0000
  H   H11       1.0  0.35730420988863154  0.7904708937259736  0.6471847798953902  1.0000
  H   H12       1.0  0.6426957910576092  0.29047089348847677  0.8528152200560262  1.0000
  H   H13       1.0  0.8674123152046993  0.2452364697093145  0.2024248083054341  1.0000
  H   H14       1.0  0.1325876853293779  0.7452364696138519  0.29757519204364047  1.0000
  H   H15       1.0  0.13258768488251904  0.7547635304327197  0.7975751912383566  1.0000
  H   H16       1.0  0.8674123147749346  0.25476353052818224  0.7024248086683771  1.0000
  H   H17       1.0  0.8173213864617224  0.3184814356379817  0.08043460148439756  1.0000
  H   H18       1.0  0.18267861407235494  0.8184814355425192  0.419565398864677  1.0000
  H   H19       1.0  0.1826786136425902  0.6815185641710931  0.91956539922762  1.0000
  H   H20       1.0  0.8173213860319576  0.18151856426655574  0.5804346018473405  1.0000
  H   H21       1.0  0.016222678527681073  0.3210114935087958  0.3644798189011859  1.0000
  H   H22       1.0  0.9837773207176093  0.8210114934133332  0.13552018140320593  1.0000
  H   H23       1.0  0.9837773215595375  0.6789885063002791  0.6355201806426047  1.0000
  H   H24       1.0  0.01622267809791634  0.17898850639574157  0.8644798192641289  1.0000
  H   H25       1.0  0.07496757323027  0.24863004521812138  0.48696160083054524  1.0000
  H   H26       1.0  0.9250324273038073  0.7486300451226587  0.01303839951852931  1.0000
  H   H27       1.0  0.9250324268740425  0.7513699549239128  0.5130383998814723  1.0000
  H   H28       1.0  0.07496757278341115  0.25136995468641604  0.9869616000252611  1.0000
  H   H29       1.0  0.35471890423575625  0.2109151244389179  0.45711451626511423  1.0000
  H   H30       1.0  0.645281095009534  0.7109151243434553  0.0428854840392776  1.0000
  H   H31       1.0  0.6452810958685563  0.7890848757031163  0.5428854844469033  1.0000
  H   H32       1.0  0.3547189050776844  0.28908487579857883  0.957114515504513  1.0000
  H   H33       1.0  0.4204266129407909  0.48220468818831047  0.8668121810684469  1.0000
  H   H34       1.0  0.5795733867166627  0.9822046880928479  0.6331878188382868  1.0000
  H   H35       1.0  0.5795733871464275  0.5177953116207644  0.13318781847534375  1.0000
  H   H36       1.0  0.4204266133876498  0.017795311716226975  0.3668121818737308  1.0000
  H   H37       1.0  0.6997109580962357  0.4438500993107357  0.8341910121870114  1.0000
  H   H38       1.0  0.30028904156121783  0.9438500992152732  0.6658089877197221  1.0000
  H   H39       1.0  0.3002890420080767  0.5561499008312984  0.16580898852500608  1.0000
  H   H40       1.0  0.6997109585260005  0.056149900593801684  0.33419101182406846  1.0000
  H   H41       1.0  0.7631309996709968  0.37265927320662334  0.9647829463235366  1.0000
  H   H42       1.0  0.23686899998645689  0.8726592734441201  0.5352170535831972  1.0000
  H   H43       1.0  0.2368690004162216  0.6273407266024515  0.03521705322025412  1.0000
  H   H44       1.0  0.7631310001178557  0.1273407266979141  0.46478294712882046  1.0000
  H   H45       1.0  0.9742315216867048  0.3790652956965962  0.27214561113285285  1.0000
  H   H46       1.0  0.025768477558585384  0.8790652956011336  0.22785438917153894  1.0000
  H   H47       1.0  0.025768478417607644  0.620934704445438  0.7278543895791647  1.0000
  H   H48       1.0  0.9742315225457271  0.12093470454090052  0.7721456115404787  1.0000
  H   H49       1.0  0.920694275226092  0.4510710050718996  0.14771991657927444  1.0000
  H   H50       1.0  0.07930572401919826  0.951071004976437  0.3522800837251174  1.0000
  H   H51       1.0  0.07930572487822052  0.5489289950701345  0.8522800841327431  1.0000
  H   H52       1.0  0.9206942747963274  0.0489289951655971  0.6477199169422174  1.0000
  H   H53       1.0  0.14140378704593787  0.4852820785489551  0.9814897887867826  1.0000
  H   H54       1.0  0.8585962126115159  0.9852820784534925  0.5185102111199509  1.0000
  H   H55       1.0  0.8585962130412805  0.514717921593079  0.018510210757007945  1.0000
  H   H56       1.0  0.14140378747570262  0.014717921688541634  0.4814897884238397  1.0000
  C   C1        1.0  0.28966675194069225  0.44178077188044323  0.5037658496939166  1.0000
  C   C2        1.0  0.7103332477167614  0.9417807717849807  0.9962341502128172  1.0000
  C   C3        1.0  0.7103332481636202  0.5582192282615909  0.49623415101810103  1.0000
  C   C4        1.0  0.28966675237045697  0.0582192283570535  0.0037658493309735332  1.0000
  C   C5        1.0  0.4487267019032283  0.4219227066824415  0.4799212537188054  1.0000
  C   C6        1.0  0.5512732986308491  0.921922706586979  0.02007874663026914  1.0000
  C   C7        1.0  0.5512732981839902  0.5780772934595927  0.5200787458249851  1.0000
  C   C8        1.0  0.44872670147346355  0.078077293222096  0.9799212540817483  1.0000
  C   C9        1.0  0.4914298342480284  0.3804322830974175  0.5510985272081245  1.0000
  C   C10       1.0  0.5085701654094252  0.8804322830019549  0.9489014726986092  1.0000
  C   C11       1.0  0.50857016583919  0.6195677170446167  0.4489014723356662  1.0000
  C   C12       1.0  0.49142983469488716  0.11956771680711993  0.051098528013408404  1.0000
  C   C13       1.0  0.3740404887495862  0.3590447753252197  0.6441485465003768  1.0000
  C   C14       1.0  0.6259595109078676  0.8590447752297571  0.8558514534063567  1.0000
  C   C15       1.0  0.6259595113547264  0.6409552244838552  0.35585145421164066  1.0000
  C   C16       1.0  0.37404048917935084  0.14095522457931775  0.14414854613743389  1.0000
  C   C17       1.0  0.21584848884660413  0.3791698505786707  0.6702933876984327  1.0000
  C   C18       1.0  0.7841515108108497  0.8791698504832082  0.829706612208301  1.0000
  C   C19       1.0  0.7841515099518274  0.6208301492304041  0.3297066118006752  1.0000
  C   C20       1.0  0.21584848927636885  0.12083014932586672  0.17029338733548974  1.0000
  C   C21       1.0  0.17430279798431234  0.4208886333041429  0.6001567235655619  1.0000
  C   C22       1.0  0.8256972016731413  0.9208886335416396  0.8998432763411718  1.0000
  C   C23       1.0  0.8256972021200002  0.5791113665049319  0.3998432771464556  1.0000
  C   C24       1.0  0.17430279841407706  0.0791113666003945  0.10015672320261892  1.0000
  C   C25       1.0  0.5682314272480836  0.4438998411001859  0.3857847293364856  1.0000
  C   C26       1.0  0.43176857328599355  0.9438998410047232  0.114215271012589  1.0000
  C   C27       1.0  0.4317685728562288  0.5561001587088891  0.614215271375532  1.0000
  C   C28       1.0  0.5682314268012248  0.056100158804351576  0.8857847285312017  1.0000
  C   C29       1.0  0.6557372746684952  0.3612663047800491  0.5290193591511289  1.0000
  C   C30       1.0  0.3442627249889586  0.8612663046845865  0.9709806407556046  1.0000
  C   C31       1.0  0.3442627254187234  0.638733695361985  0.47098064039266174  1.0000
  C   C32       1.0  0.6557372750982599  0.1387336954574476  0.029019358788185862  1.0000
  C   C33       1.0  0.09876261465247786  0.35767989921935134  0.7682513765242787  1.0000
  C   C34       1.0  0.9012373850049757  0.8576798991238888  0.7317486233824549  1.0000
  C   C35       1.0  0.9012373854518346  0.6423201009226828  0.23174862418773887  1.0000
  C   C36       1.0  0.09876261508224259  0.14232010068518608  0.26825137616133565  1.0000
  C   C37       1.0  0.015980595807822063  0.44270718486522964  0.6265503198113401  1.0000
  C   C38       1.0  0.9840194038496317  0.9427071851027264  0.8734496800953934  1.0000
  C   C39       1.0  0.9840194042964905  0.5572928149438452  0.3734496809006773  1.0000
  C   C40       1.0  0.015980596237586797  0.057292815039307804  0.12655031944839726  1.0000
  C   C41       1.0  0.459518665980265  0.2634824162069766  0.31795694882914377  1.0000
  C   C42       1.0  0.5404813345367182  0.763482416111514  0.18204305035170384  1.0000
  C   C43       1.0  0.5404813341069535  0.7365175839350576  0.6820430507146469  1.0000
  C   C44       1.0  0.45951866555050025  0.23651758369756087  0.8179569491920868  1.0000
  C   C45       1.0  0.6193718701743551  0.24194335901047961  0.29889909632442896  1.0000
  C   C46       1.0  0.380628130342628  0.7419433589150171  0.20110090285641868  1.0000
  C   C47       1.0  0.3806281299128633  0.7580566407985952  0.7011009032193617  1.0000
  C   C48       1.0  0.6193718697445904  0.25805664089405783  0.798899096687372  1.0000
  C   C49       1.0  0.7447621879946212  0.26206398359690086  0.2154656937269474  1.0000
  C   C50       1.0  0.255237811233575  0.7620639835014383  0.2845343054092175  1.0000
  C   C51       1.0  0.2552378120925972  0.7379360165451333  0.7845343058168432  1.0000
  C   C52       1.0  0.7447621888536435  0.23793601630763658  0.7154656941345732  1.0000
  C   C53       1.0  0.715157782550676  0.3039541478017552  0.14642026182895856  1.0000
  C   C54       1.0  0.2848422179663071  0.8039541477062927  0.3535797373518891  1.0000
  C   C55       1.0  0.2848422175365424  0.6960458523402789  0.8535797377148321  1.0000
  C   C56       1.0  0.7151577821209114  0.1960458521027822  0.6464202621919015  1.0000
  C   C57       1.0  0.5582377191535921  0.32603515087244656  0.15751752411761738  1.0000
  C   C58       1.0  0.44176228136339096  0.826035150776984  0.34248247506323026  1.0000
  C   C59       1.0  0.44176228093362624  0.6739648492695877  0.8424824754261733  1.0000
  C   C60       1.0  0.5582377187238274  0.17396484936505016  0.6575175244805604  1.0000
  C   C61       1.0  0.4274423372542022  0.30608104522771745  0.2463528023915159  1.0000
  C   C62       1.0  0.572557661991088  0.8060810451322549  0.2536471979128759  1.0000
  C   C63       1.0  0.5725576628501103  0.6939189549143168  0.7536471983205016  1.0000
  C   C64       1.0  0.42744233809613036  0.19391895467681997  0.7463528016309148  1.0000
  C   C65       1.0  0.26356210381130973  0.32695745613828736  0.26176750876093374  1.0000
  C   C66       1.0  0.7364378967227675  0.8269574560428248  0.23823249158814083  1.0000
  C   C67       1.0  0.7364378962930028  0.6730425440037469  0.7382324919510839  1.0000
  C   C68       1.0  0.263562103381545  0.17304254409920938  0.7617675091238766  1.0000
  C   C69       1.0  0.14098764778176287  0.3057723852928072  0.3490619205128839  1.0000
  C   C70       1.0  0.8590123527523144  0.8057723851973446  0.15093807983619065  1.0000
  C   C71       1.0  0.8590123523054557  0.6942276148492269  0.6509380790309067  1.0000
  C   C72       1.0  0.14098764735199812  0.1942276149446895  0.849061920875827  1.0000
  C   C73       1.0  0.17402757481541165  0.2643545245279973  0.4202751149568211  1.0000
  C   C74       1.0  0.8259724244298786  0.7643545244325347  0.07972488534757069  1.0000
  C   C75       1.0  0.8259724252718068  0.7356454752810776  0.5797248845869695  1.0000
  C   C76       1.0  0.17402757567443392  0.23564547537654013  0.920275115364447  1.0000
  C   C77       1.0  0.3297280880764084  0.24330412073821622  0.40391513133491086  1.0000
  C   C78       1.0  0.6702719111688819  0.7433041206427536  0.09608486896948094  1.0000
  C   C79       1.0  0.670271912027904  0.7566958794038179  0.5960848693771067  1.0000
  C   C80       1.0  0.32972808891833666  0.25669587949928047  0.9039151305743097  1.0000
  C   C81       1.0  0.3230716066713534  0.43139178297130476  0.01792138230840324  1.0000
  C   C82       1.0  0.6769283925739369  0.9313917828758421  0.4820786179959885  1.0000
  C   C83       1.0  0.676928393415865  0.5686082171707293  0.9820786172353876  1.0000
  C   C84       1.0  0.3230716075303757  0.06860821726619196  0.517921382716029  1.0000
  C   C85       1.0  0.44859489697416643  0.45046146945767057  0.9240772534003041  1.0000
  C   C86       1.0  0.5514051026832871  0.950461469362208  0.5759227465064296  1.0000
  C   C87       1.0  0.5514051031301461  0.5495385306843636  0.0759227473117135  1.0000
  C   C88       1.0  0.4485948974039312  0.04953853077982619  0.42407725303736105  1.0000
  C   C89       1.0  0.6035057324602565  0.42910448506383897  0.9065690243387106  1.0000
  C   C90       1.0  0.3964942685030782  0.9291044853013356  0.5934309767809327  1.0000
  C   C91       1.0  0.396494267644056  0.5708955147452359  0.09343097637330693  1.0000
  C   C92       1.0  0.6035057316012343  0.07089551484069849  0.4065690239310849  1.0000
  C   C93       1.0  0.6392303683088849  0.38832758228174774  0.9818660974335309  1.0000
  C   C94       1.0  0.3607696313485688  0.8883275821862852  0.5181339024732028  1.0000
  C   C95       1.0  0.36076963177833354  0.6116724175273272  0.018133902110259753  1.0000
  C   C96       1.0  0.6392303687386497  0.1116724176227897  0.4818660970705879  1.0000
  C   C97       1.0  0.5208060332221006  0.3682539642240861  0.07658221820444888  1.0000
  C   C98       1.0  0.47919396729488256  0.8682539644615829  0.42341778097639876  1.0000
  C   C99       1.0  0.4791939668651178  0.6317460355849888  0.9234177813393418  1.0000
  C   C100      1.0  0.5208060327923358  0.13174603568045132  0.5765822185673918  1.0000
  C   C101      1.0  0.3576983402508857  0.3895453566337129  0.09428870913910362  1.0000
  C   C102      1.0  0.6423016589944045  0.8895453565382504  0.4057112911652882  1.0000
  C   C103      1.0  0.6423016598534268  0.6104546435083211  0.9057112915729139  1.0000
  C   C104      1.0  0.3576983410928139  0.11045464360378376  0.5942887083785025  1.0000
  C   C105      1.0  0.22881663565841745  0.3700971044074768  0.18634461756533371  1.0000
  C   C106      1.0  0.7711833648756597  0.8700971043120143  0.31365538278374083  1.0000
  C   C107      1.0  0.7711833644288009  0.6299028957345574  0.8136553819784569  1.0000
  C   C108      1.0  0.22881663522865275  0.12990289549706063  0.6863446179282766  1.0000
  C   C109      1.0  0.07410433634815486  0.3929345936827759  0.2018598036627032  1.0000
  C   C110      1.0  0.9258956641859225  0.8929345939202726  0.2981401966863714  1.0000
  C   C111      1.0  0.9258956637390635  0.607065406126299  0.7981401958810874  1.0000
  C   C112      1.0  0.07410433591839012  0.10706540622176157  0.7018598040256462  1.0000
  C   C113      1.0  0.04251361219089779  0.43433294136751693  0.12975574043798882  1.0000
  C   C114      1.0  0.9574863870372984  0.9343329412720545  0.37024425869817607  1.0000
  C   C115      1.0  0.9574863866075336  0.5656670584415578  0.8702442590611191  1.0000
  C   C116      1.0  0.04251361304992005  0.06566705853702047  0.6297557408456146  1.0000
  C   C117      1.0  0.16410525977588122  0.45325139207724885  0.03845312356570754  1.0000
  C   C118      1.0  0.8358947407411019  0.9532513919817863  0.46154687561514013  1.0000
  C   C119      1.0  0.8358947403113373  0.5467486080647853  0.9615468759780831  1.0000
  C   C120      1.0  0.16410525934611653  0.04674860782728854  0.5384531239286506  1.0000
  N   N1        1.0  0.6664508079165528  0.46284802041442297  0.3114466189066161  1.0000
  N   N2        1.0  0.3335491926004304  0.9628480203189604  0.18855338027423155  1.0000
  N   N3        1.0  0.33354919217066564  0.5371519797276112  0.6885533806371746  1.0000
  N   N4        1.0  0.666450807486788  0.03715197982307377  0.8114466192695591  1.0000
  N   N5        1.0  0.7930364731384432  0.34702124723502153  0.511744891949934  1.0000
  N   N6        1.0  0.20696352780779756  0.8470212471395588  0.9882551080014825  1.0000
  N   N7        1.0  0.2069635269658694  0.6529787525740534  0.4882551087620836  1.0000
  N   N8        1.0  0.7930364722794208  0.1529787526695159  0.011744891542308167  1.0000
  N   N9        1.0  0.005003942614191035  0.33951241558078765  0.8492084531209627  1.0000
  N   N10       1.0  0.9949960570432627  0.8395124154853251  0.6507915467857709  1.0000
  N   N11       1.0  0.9949960574730273  0.6604875842282871  0.15079154642282797  1.0000
  N   N12       1.0  0.005003941755168772  0.16048758432374977  0.34920845271333695  1.0000
  N   N13       1.0  0.8884872044151767  0.4620695472421103  0.6451112377904925  1.0000
  N   N14       1.0  0.11151279524227704  0.9620695471466478  0.8548887621162412  1.0000
  N   N15       1.0  0.11151279440034889  0.5379304528999238  0.3548887628768423  1.0000
  N   N16       1.0  0.8884872048449414  0.0379304529953864  0.1451112374275495  1.0000
