data_image0
_chemical_formula_structural       H16C16N8S8
_chemical_formula_sum              "H16 C16 N8 S8"
_cell_length_a       4.0990556316346805
_cell_length_b       10.751933809814982
_cell_length_c       13.444043413252045
_cell_angle_alpha    98.9415850386789
_cell_angle_beta     92.71352940789853
_cell_angle_gamma    94.00989841600868

_space_group_name_H-M_alt    "P 1"
_space_group_IT_number       1

loop_
  _space_group_symop_operation_xyz
  'x, y, z'

loop_
  _atom_site_type_symbol
  _atom_site_label
  _atom_site_symmetry_multiplicity
  _atom_site_fract_x
  _atom_site_fract_y
  _atom_site_fract_z
  _atom_site_occupancy
  H   H1        1.0  0.6760669505181588  0.6654909819582767  0.24898423462172825  1.0000
  H   H2        1.0  0.3239330495607712  0.3345090177395695  0.7510157653594942  1.0000
  H   H3        1.0  0.09260987539698053  0.6157743955537005  0.9842893103285058  1.0000
  H   H4        1.0  0.9073901248610667  0.38422560508853854  0.015710689774416715  1.0000
  H   H5        1.0  0.6394202461541246  0.9529414847450974  0.0780745253838216  1.0000
  H   H6        1.0  0.3605797541039228  0.04705851589714173  0.9219254747191009  1.0000
  H   H7        1.0  0.4908030590604465  0.8151566612807079  0.39840961852592116  1.0000
  H   H8        1.0  0.5091969411976007  0.18484333936153133  0.6015903815770013  1.0000
  H   H9        1.0  0.4330571969968398  0.8702863661735935  0.7225535016529516  1.0000
  H   H10       1.0  0.5669428030820901  0.12971363352425264  0.27744649832827084  1.0000
  H   H11       1.0  0.31561821553626906  0.9399691289179256  0.5554993611292325  1.0000
  H   H12       1.0  0.6843817847217781  0.060030871724313595  0.44450063897368997  1.0000
  H   H13       1.0  0.7249219949854872  0.6699283602328147  0.7228687043012415  1.0000
  H   H14       1.0  0.2750780052725601  0.33007164040942444  0.27713129580168083  1.0000
  H   H15       1.0  0.8854409512404785  0.5628839386278307  0.5744891125643314  1.0000
  H   H16       1.0  0.11455904901756876  0.4371160620144084  0.42551088753859106  1.0000
  C   C1        1.0  0.6929828849433591  0.8213674766800634  0.17339080599916504  1.0000
  C   C2        1.0  0.3070171151355709  0.1786325230177828  0.8266091939820576  1.0000
  C   C3        1.0  0.34406288460279816  0.7922640941130235  0.018446030027197705  1.0000
  C   C4        1.0  0.6559371154761318  0.2077359055848226  0.9815539699540249  1.0000
  C   C5        1.0  0.3686614052211991  0.6227350240492593  0.1185498416309699  1.0000
  C   C6        1.0  0.6313385950368482  0.37726497659298  0.8814501584719526  1.0000
  C   C7        1.0  0.7124097595307257  0.676494600593613  0.47442670669869064  1.0000
  C   C8        1.0  0.2875902405482042  0.32350539910423315  0.5255732932825319  1.0000
  C   C9        1.0  0.5436219935457713  0.7868346189880604  0.471334349534099  1.0000
  C   C10       1.0  0.4563780065331586  0.2131653807097859  0.5286656504471235  1.0000
  C   C11       1.0  0.5096612329577368  0.8173839967179161  0.6531594375446855  1.0000
  C   C12       1.0  0.49033876712119306  0.18261600297993003  0.346840562436537  1.0000
  C   C13       1.0  0.4463024471443342  0.8556266578718842  0.5589767950025458  1.0000
  C   C14       1.0  0.553697552948809  0.14437334182817715  0.4410232042353472  1.0000
  C   C15       1.0  0.6690762152813318  0.709446045538496  0.6548070775292435  1.0000
  C   C16       1.0  0.3309237823543451  0.29055395415442614  0.345192922411899  1.0000
  N   N1        1.0  0.25283962804461063  0.6736632654713209  0.03776816900562403  1.0000
  N   N2        1.0  0.7471603720343194  0.32633673422652515  0.9622318309755984  1.0000
  N   N3        1.0  0.586440206853446  0.7004543628341524  0.1842314439750171  1.0000
  N   N4        1.0  0.4135597934046014  0.2995456378080868  0.8157685561279053  1.0000
  N   N5        1.0  0.5672485969397181  0.8611038694290363  0.08792312919526107  1.0000
  N   N6        1.0  0.4327514033183293  0.13889613121320285  0.9120768709076613  1.0000
  N   N7        1.0  0.7640102100121943  0.643955008277027  0.5681760558570236  1.0000
  N   N8        1.0  0.2359897900667358  0.35604499142081913  0.431823944124199  1.0000
  S   S1        1.0  0.9528847290525995  0.9131125942193898  0.25529293862095354  1.0000
  S   S2        1.0  0.04711526858307736  0.08688740547353253  0.7447070613201889  1.0000
  S   S3        1.0  0.18951642498626448  0.8447813429840065  0.9179599272621491  1.0000
  S   S4        1.0  0.8104835752717829  0.15521865765823264  0.08204007284077323  1.0000
  S   S5        1.0  0.2518001603299432  0.47681785403521265  0.13522487724128274  1.0000
  S   S6        1.0  0.7481998397489867  0.5231821456626333  0.8647751227399397  1.0000
  S   S7        1.0  0.8490442708428325  0.586010213793783  0.3719520951649213  1.0000
  S   S8        1.0  0.1509557294152147  0.4139897868484561  0.6280479049380011  1.0000
