data_image0
_chemical_formula_structural       H32C32N16S16
_chemical_formula_sum              "H32 C32 N16 S16"
_cell_length_a       4.005038859645202
_cell_length_b       12.256059341062118
_cell_length_c       23.60451586710806
_cell_angle_alpha    90.0
_cell_angle_beta     89.02403839613643
_cell_angle_gamma    90.0

_space_group_name_H-M_alt    "P 1"
_space_group_IT_number       1

loop_
  _space_group_symop_operation_xyz
  'x, y, z'

loop_
  _atom_site_type_symbol
  _atom_site_label
  _atom_site_symmetry_multiplicity
  _atom_site_fract_x
  _atom_site_fract_y
  _atom_site_fract_z
  _atom_site_occupancy
  H   H1        1.0  0.5936185586256215  0.28585806436674654  0.6064903583684207  1.0000
  H   H2        1.0  0.9063814412521669  0.7858580643234162  0.8935096420142776  1.0000
  H   H3        1.0  0.4063814412929041  0.7141419355465929  0.39350964188671167  1.0000
  H   H4        1.0  0.09361855866635867  0.21414193558992317  0.10649035824085454  1.0000
  H   H5        1.0  0.05197517012087561  0.4044255899931415  0.4720902336517969  1.0000
  H   H6        1.0  0.4480248298663972  0.9044255899498113  0.027909766052067173  1.0000
  H   H7        1.0  0.94802482982566  0.595574409920198  0.5279097661796334  1.0000
  H   H8        1.0  0.5519751700801385  0.0955744099635282  0.972090233779363  1.0000
  H   H9        1.0  0.35718674783322557  0.08402466007567126  0.4732732761652704  1.0000
  H   H10       1.0  0.14281325212603724  0.584024660032341  0.026726723962295768  1.0000
  H   H11       1.0  0.64281325211331  0.9159753406535911  0.5267267236661598  1.0000
  H   H12       1.0  0.8571867477924884  0.4159753406969214  0.9732732762928366  1.0000
  H   H13       1.0  0.7357434148126887  0.494320304871743  0.6585729909925648  1.0000
  H   H14       1.0  0.7642565850650997  0.9943203048284127  0.8414270093901336  1.0000
  H   H15       1.0  0.26425658510583694  0.5056796950415964  0.3414270092625675  1.0000
  H   H16       1.0  0.23574341485342584  0.0056796950849266606  0.15857299086499865  1.0000
  H   H17       1.0  0.2348323069557966  0.3028317134174676  0.7862699356911307  1.0000
  H   H18       1.0  0.2651676952401977  0.8028317133741373  0.7137300643311377  1.0000
  H   H19       1.0  0.765167692990739  0.6971682864958718  0.21373006414029963  1.0000
  H   H20       1.0  0.7348323046783278  0.1971682865392021  0.2862699359239944  1.0000
  H   H21       1.0  0.9027037781419598  0.6613233066557261  0.7121282853680191  1.0000
  H   H22       1.0  0.5972962217638386  0.16132330669905648  0.7878717145909774  1.0000
  H   H23       1.0  0.09729622180457582  0.33867669325761324  0.2878717144634112  1.0000
  H   H24       1.0  0.402703778182697  0.8386766940302058  0.21212828524045288  1.0000
  H   H25       1.0  0.3858144732199011  0.47775388051381357  0.8339136739606102  1.0000
  H   H26       1.0  0.11418552650704342  0.9777538804704833  0.6660863256404208  1.0000
  H   H27       1.0  0.6141855267266346  0.5222461193995258  0.16608632587081995  1.0000
  H   H28       1.0  0.8858144734394922  0.022246119442856094  0.3339136741910094  1.0000
  H   H29       1.0  0.24299246372678246  0.6442191262526772  0.7923973305533704  1.0000
  H   H30       1.0  0.257007535972152  0.1442191262960075  0.7076026694713629  1.0000
  H   H31       1.0  0.7570075362197531  0.3557808736606622  0.20760266927805995  1.0000
  H   H32       1.0  0.7429924639743836  0.8557808736173318  0.2923973303600674  1.0000
  C   C1        1.0  0.3185996989913633  0.36144198038911474  0.5429359437865205  1.0000
  C   C2        1.0  0.1814003007075711  0.8614419803457845  0.9570640562382126  1.0000
  C   C3        1.0  0.6814003009551723  0.6385580195242246  0.4570640560449097  1.0000
  C   C4        1.0  0.8185996992109544  0.138558019567555  0.04293594401691968  1.0000
  C   C5        1.0  0.4956728671287369  0.1720968372707971  0.5438542068636588  1.0000
  C   C6        1.0  0.004327132570197454  0.6720968372274668  0.9561457931610743  1.0000
  C   C7        1.0  0.5043271328177986  0.8279031626425424  0.4561457929677714  1.0000
  C   C8        1.0  0.9956728673763381  0.3279031626858726  0.043854206670355965  1.0000
  C   C9        1.0  0.18836208324997522  0.24230660584763794  0.4634544241079057  1.0000
  C   C10       1.0  0.3116379167372976  0.7423066058043077  0.036545575595958335  1.0000
  C   C11       1.0  0.8116379166965604  0.7576933940657015  0.5365455757235245  1.0000
  C   C12       1.0  0.688362083209238  0.2576933941090317  0.9634544242354719  1.0000
  C   C13       1.0  0.9822318536778643  0.38269148749026344  0.7163259989791628  1.0000
  C   C14       1.0  0.5177681462279341  0.8826914874469332  0.7836740009798335  1.0000
  C   C15       1.0  0.017768146240661253  0.6173085124230759  0.2836740012759694  1.0000
  C   C16       1.0  0.48223185371860156  0.11730851246640622  0.21632599885159673  1.0000
  C   C17       1.0  0.8823547175675687  0.48742517915079686  0.6968624852644124  1.0000
  C   C18       1.0  0.6176452848352897  0.9874251791074665  0.8031375146921191  1.0000
  C   C19       1.0  0.11764528487602685  0.5125748207625426  0.30313751456455307  1.0000
  C   C20       1.0  0.38235471760830586  0.012574820805872832  0.19686248513684632  1.0000
  C   C21       1.0  0.1604728913685819  0.3803668161414112  0.7679458954307044  1.0000
  C   C22       1.0  0.3395271108274124  0.880366816098081  0.7320541045915641  1.0000
  C   C23       1.0  0.8395271085499437  0.6196331837719282  0.2320541048244279  1.0000
  C   C24       1.0  0.6604728891191232  0.11963318381525848  0.26794589523986617  1.0000
  C   C25       1.0  0.971689463909255  0.5798016778681966  0.7256919833254476  1.0000
  C   C26       1.0  0.5283105359965433  0.07980167791152692  0.7743080166335486  1.0000
  C   C27       1.0  0.02831053600927056  0.42019832204514274  0.27430801692968465  1.0000
  C   C28       1.0  0.4716894639499922  0.9201983220018125  0.22569198319788147  1.0000
  C   C29       1.0  0.2441698450288206  0.47552695591754  0.7950034733956782  1.0000
  C   C30       1.0  0.2558301546701139  0.9755269558742097  0.7049965266290549  1.0000
  C   C31       1.0  0.755830154917715  0.5244730439957994  0.20499652643575206  1.0000
  C   C32       1.0  0.7441698452484118  0.024473044039129685  0.2950034736260773  1.0000
  N   N1        1.0  0.4794378773624305  0.2745802730185185  0.5668692730661625  1.0000
  N   N2        1.0  0.020562122336503917  0.7745802729751882  0.9331307269585706  1.0000
  N   N3        1.0  0.520562122584105  0.7254197268948209  0.4331307267652677  1.0000
  N   N4        1.0  0.9794378776100318  0.2254197269381512  0.06686927287285957  1.0000
  N   N5        1.0  0.1773929357469738  0.3406292482619631  0.49151026242297136  1.0000
  N   N6        1.0  0.322607064212289  0.8406292482186327  0.008489737704594776  1.0000
  N   N7        1.0  0.8226070641715517  0.6593707516513763  0.5084897378321609  1.0000
  N   N8        1.0  0.6773929357342466  0.1593707516947066  0.9915102621268354  1.0000
  N   N9        1.0  0.3495594962177272  0.16088943151519666  0.49217581306112723  1.0000
  N   N10       1.0  0.15044050374153564  0.6608894314718664  0.007824187066438911  1.0000
  N   N11       1.0  0.6504405037007984  0.8391105683981427  0.5078241871940051  1.0000
  N   N12       1.0  0.849559496205  0.339110568441473  0.9921758127649913  1.0000
  N   N13       1.0  0.15313937685003856  0.5731196222644332  0.7734881023120926  1.0000
  N   N14       1.0  0.34686062284889585  0.07311962230776359  0.7265118977126406  1.0000
  N   N15       1.0  0.8468606230684871  0.42688037764890613  0.22651189794303966  1.0000
  N   N16       1.0  0.6531393770976397  0.9268803776055758  0.27348810211878966  1.0000
  S   S1        1.0  0.29753517945616736  0.48244286156398364  0.5739587097166798  1.0000
  S   S2        1.0  0.20246482027077708  0.9824428615206534  0.9260412898843513  1.0000
  S   S3        1.0  0.7024648204903682  0.5175571383493558  0.42604129011475045  1.0000
  S   S4        1.0  0.7975351796757585  0.017557138392686033  0.07395870994707894  1.0000
  S   S5        1.0  0.6792921408562855  0.06892136587246626  0.5766103683992919  1.0000
  S   S6        1.0  0.8207078590495129  0.568921365829136  0.9233896315597044  1.0000
  S   S7        1.0  0.32070785909025007  0.9310786340408731  0.42338963143213837  1.0000
  S   S8        1.0  0.17929214086901274  0.43107863408420344  0.07661036869542782  1.0000
  S   S9        1.0  0.019413869103560886  0.2238224419173116  0.40097506067131095  1.0000
  S   S10       1.0  0.4805861308557019  0.7238224418739813  0.0990249394562552  1.0000
  S   S11       1.0  0.9805861308429746  0.7761775579960278  0.5990249391601193  1.0000
  S   S12       1.0  0.5194138690628236  0.2761775580393581  0.9009750607988771  1.0000
  S   S13       1.0  0.8963245979959427  0.2667747519013443  0.6793608970096724  1.0000
  S   S14       1.0  0.6036754019098558  0.766774751858014  0.820639102949324  1.0000
  S   S15       1.0  0.10367540192258294  0.7332252480119951  0.32063910324545986  1.0000
  S   S16       1.0  0.39632459803667985  0.23322524805532538  0.1793608968821063  1.0000
