data_image0
_chemical_formula_structural       H36C20N8O20
_chemical_formula_sum              "H36 C20 N8 O20"
_cell_length_a       4.949153121361299
_cell_length_b       22.354941257299167
_cell_length_c       6.780109640904165
_cell_angle_alpha    90.0
_cell_angle_beta     106.72486982994216
_cell_angle_gamma    90.0

_space_group_name_H-M_alt    "P 1"
_space_group_IT_number       1

loop_
  _space_group_symop_operation_xyz
  'x, y, z'

loop_
  _atom_site_type_symbol
  _atom_site_label
  _atom_site_symmetry_multiplicity
  _atom_site_fract_x
  _atom_site_fract_y
  _atom_site_fract_z
  _atom_site_occupancy
  H   H1        1.0  0.9375012519094463  0.7775347807869836  0.3513397710282873  1.0000
  H   H2        1.0  0.06249874818627329  0.2775347807265755  0.648660229330175  1.0000
  H   H3        1.0  0.9028315389688494  0.8116262633468476  0.5557686023959275  1.0000
  H   H4        1.0  0.09716846112687026  0.31162626373376795  0.4442313979625347  1.0000
  H   H5        1.0  0.2311848273794535  0.802081833882944  0.5307501491127856  1.0000
  H   H6        1.0  0.7688151727379796  0.30208183382253595  0.46924984977541345  1.0000
  H   H7        1.0  0.2267753804201851  0.9544512841443187  0.9263790155675194  1.0000
  H   H8        1.0  0.7732246196972481  0.4544512840839108  0.07362098332067957  1.0000
  H   H9        1.0  0.5746951219904537  0.0007054189862767379  0.13875429042948123  1.0000
  H   H10       1.0  0.4253048781269795  0.5007054190466848  0.861245708458718  1.0000
  H   H11       1.0  0.5673646446945666  0.07641801784839011  0.19912746047884217  1.0000
  H   H12       1.0  0.4326353554011529  0.5764180179087981  0.80087253987962  1.0000
  H   H13       1.0  0.15701115545294161  0.13279368555847654  0.011254690033692236  1.0000
  H   H14       1.0  0.8429888446427779  0.6327936856188846  0.98874531032477  1.0000
  H   H15       1.0  0.8712731043048364  0.09642977519773813  0.8407608609561805  1.0000
  H   H16       1.0  0.12872689579088312  0.5964297752581461  0.15923913940228174  1.0000
  H   H17       1.0  0.14565547793974973  0.8709123229587136  0.25274623822305003  1.0000
  H   H18       1.0  0.8543445221559699  0.37091232289830556  0.7472537621354121  1.0000
  H   H19       1.0  0.24774114948876938  0.918666168415652  0.596278412955649  1.0000
  H   H20       1.0  0.7522588506069502  0.41866616835524384  0.40372158740281316  1.0000
  H   H21       1.0  0.04442916428798237  0.9641138852450697  0.39592578217046853  1.0000
  H   H22       1.0  0.955570835807737  0.46411388518466157  0.6040742181879937  1.0000
  H   H23       1.0  0.8175487551063676  0.8921616026831635  0.7032170523937258  1.0000
  H   H24       1.0  0.18245124498935197  0.3921616026227556  0.2967829479647365  1.0000
  H   H25       1.0  0.6041225089165556  0.9309405178242154  0.4867465199713303  1.0000
  H   H26       1.0  0.3958774912008774  0.43094051776380726  0.5132534789168688  1.0000
  H   H27       1.0  0.661329518776367  0.9928880758187073  0.7842431749780409  1.0000
  H   H28       1.0  0.33867048131935257  0.4928880757582992  0.21575682538042143  1.0000
  H   H29       1.0  0.8291436692758091  0.0263060565998127  0.6127979302969102  1.0000
  H   H30       1.0  0.17085633081991045  0.5263060566602207  0.38720207006155205  1.0000
  H   H31       1.0  0.32444515475175006  0.8149042652506133  0.010992484511287159  1.0000
  H   H32       1.0  0.6755548432342843  0.31490426519020537  0.9890075153888293  1.0000
  H   H33       1.0  0.41799898547366704  0.7088768302992428  0.21174361849424067  1.0000
  H   H34       1.0  0.5820010146220526  0.20887683023883472  0.7882563818642215  1.0000
  H   H35       1.0  0.3070224990436242  0.6890623456668856  0.6772778589735121  1.0000
  H   H36       1.0  0.6929775010520953  0.18906234605380598  0.32272214138495015  1.0000
  C   C1        1.0  0.6967283531074197  0.8713468403161155  0.17493014537539245  1.0000
  C   C2        1.0  0.3032716469883  0.3713468402557075  0.8250698549830698  1.0000
  C   C3        1.0  0.9871788433160479  0.8703515010869088  0.3378650840946296  1.0000
  C   C4        1.0  0.012821156779671623  0.37035150102650094  0.6621349162638326  1.0000
  C   C5        1.0  0.03733234943267856  0.9234500333683313  0.4856069411275593  1.0000
  C   C6        1.0  0.9626676506847546  0.4234500333079233  0.5143930577606398  1.0000
  C   C7        1.0  0.8139560078801548  0.9303176322688596  0.5998102550168518  1.0000
  C   C8        1.0  0.18604399221556475  0.43031763220845143  0.40018974534161034  1.0000
  C   C9        1.0  0.8401303961718277  0.9887091267924154  0.7192220751084777  1.0000
  C   C10       1.0  0.15986960392389185  0.48870912673200745  0.2807779252499846  1.0000
  C   C11       1.0  0.2135869884436812  0.04282853168703306  0.9798923270885223  1.0000
  C   C12       1.0  0.7864130116737519  0.5428285317474411  0.020107671799676884  1.0000
  C   C13       1.0  0.9929098658985032  0.7574564439739334  0.937528031947177  1.0000
  C   C14       1.0  0.00709013421892999  0.2574564439135255  0.062471966941022104  1.0000
  C   C15       1.0  0.6937634102996577  0.7459742460542145  0.7896935812140294  1.0000
  C   C16       1.0  0.3062365897960619  0.24597424599380655  0.2103064191444327  1.0000
  C   C17       1.0  0.9586083082465633  0.641248147557508  0.5377412213075303  1.0000
  C   C18       1.0  0.04139169184915607  0.14124814749710007  0.4622587790509319  1.0000
  C   C19       1.0  0.6603987060985167  0.6483714814176678  0.3858760178774075  1.0000
  C   C20       1.0  0.33960129399720285  0.14837148135725975  0.6141239824810548  1.0000
  N   N1        1.0  0.020298469468798937  0.8121884562801838  0.4509215464272767  1.0000
  N   N2        1.0  0.9797015306269206  0.31218845621977576  0.5490784539311856  1.0000
  N   N3        1.0  0.1058513433068894  0.9919293361041485  0.8828887856011324  1.0000
  N   N4        1.0  0.8941486568105436  0.49192933604374045  0.11711121328706668  1.0000
  N   N5        1.0  0.4674160087778546  0.040321212193106915  0.11952648660691  1.0000
  N   N6        1.0  0.5325839913178649  0.5403212122535149  0.8804735137515523  1.0000
  N   N7        1.0  0.07321090307754506  0.09437342579959375  0.9364073856722032  1.0000
  N   N8        1.0  0.9267890970181745  0.5943734258600017  0.06359261468625911  1.0000
  O   O1        1.0  0.6033022653891651  0.9193134597609277  0.08681476891896055  1.0000
  O   O2        1.0  0.3966977347065545  0.4193134597005197  0.9131852314395017  1.0000
  O   O3        1.0  0.5741770567240396  0.8201627890215769  0.14201152879598003  1.0000
  O   O4        1.0  0.4258229433716799  0.3201627889611689  0.8579884715624823  1.0000
  O   O5        1.0  0.10457523931299721  0.8077344526281951  0.9040899383839706  1.0000
  O   O6        1.0  0.8954247607827224  0.3077344530151156  0.09591006197449171  1.0000
  O   O7        1.0  0.10278902727073014  0.7201345002301726  0.07293499207239101  1.0000
  O   O8        1.0  0.897210972846703  0.22013450016976457  0.9270650068158082  1.0000
  O   O9        1.0  0.587503064298377  0.6951092848399358  0.8098671764868597  1.0000
  O   O10       1.0  0.41249693581905617  0.19510928477952788  0.19013282240133936  1.0000
  O   O11       1.0  0.5857446930817094  0.7868224048344056  0.6642021328883793  1.0000
  O   O12       1.0  0.4142553070140102  0.28682240477399756  0.33579786747008294  1.0000
  O   O13       1.0  0.4913937128277701  0.6069086303490094  0.35099649508059827  1.0000
  O   O14       1.0  0.5086062872679494  0.10690863028860147  0.649003505277864  1.0000
  O   O15       1.0  0.6173931504844324  0.7027200711104856  0.3066206711334834  1.0000
  O   O16       1.0  0.38260684961128705  0.2027200710500777  0.6933793292249788  1.0000
  O   O17       1.0  0.04419788644759909  0.5922866062408821  0.6111568244549891  1.0000
  O   O18       1.0  0.9558021136481204  0.09228660618047406  0.38884317590347306  1.0000
  O   O19       1.0  0.09693666569009998  0.692220755666149  0.5757800189239931  1.0000
  O   O20       1.0  0.9030633344273332  0.19222075560574103  0.424219979964206  1.0000
