data_image0
_chemical_formula_structural       H24C20N20O2I18
_chemical_formula_sum              "H24 C20 N20 O2 I18"
_cell_length_a       7.774028416669198
_cell_length_b       11.510072911137163
_cell_length_c       17.115608287390575
_cell_angle_alpha    79.9043223119076
_cell_angle_beta     86.07238178345985
_cell_angle_gamma    73.26183150185777

_space_group_name_H-M_alt    "P 1"
_space_group_IT_number       1

loop_
  _space_group_symop_operation_xyz
  'x, y, z'

loop_
  _atom_site_type_symbol
  _atom_site_label
  _atom_site_symmetry_multiplicity
  _atom_site_fract_x
  _atom_site_fract_y
  _atom_site_fract_z
  _atom_site_occupancy
  H   H1        1.0  0.6077328434247938  0.6326756390190661  0.6687406405096467  1.0000
  H   H2        1.0  0.39226715715317245  0.3673243613689209  0.33125935925350397  1.0000
  H   H3        1.0  0.6482597454320066  0.5600054553386636  0.5833601928891475  1.0000
  H   H4        1.0  0.3517402538679693  0.4399945448407352  0.4166398074706489  1.0000
  H   H5        1.0  0.8242743835203841  0.3567184109248314  0.5271794820547737  1.0000
  H   H6        1.0  0.17572561577285567  0.6432815894580203  0.4728205177125315  1.0000
  H   H7        1.0  0.023892613537148756  0.1397160434450998  0.5391064894462383  1.0000
  H   H8        1.0  0.9761073870408176  0.8602839569428872  0.4608935103169123  1.0000
  H   H9        1.0  0.964405496445006  0.368011463331352  0.861538069572727  1.0000
  H   H10       1.0  0.03559450284823376  0.6319885370514999  0.1384619301945781  1.0000
  H   H11       1.0  0.7675690233695943  0.5302575533422332  0.7880218801261654  1.0000
  H   H12       1.0  0.23243097631658535  0.4697424461439087  0.21197811960579455  1.0000
  H   H13       1.0  0.17599006296340686  0.11257197832526927  0.8327277466176881  1.0000
  H   H14       1.0  0.8240099376145595  0.8874280220627176  0.16727225314546246  1.0000
  H   H15       1.0  0.2967006576393057  0.022584738451289554  0.9185593614779485  1.0000
  H   H16       1.0  0.70329934166067  0.9774152617281092  0.08144063888184795  1.0000
  H   H17       1.0  0.5178722492668534  0.8165146977795078  0.9738658537894727  1.0000
  H   H18       1.0  0.4821277500263863  0.1834853026033439  0.02613414597783246  1.0000
  H   H19       1.0  0.7416134243117354  0.6069475887711326  0.9628884095897909  1.0000
  H   H20       1.0  0.2583865749815043  0.39305241161171917  0.03711159017751419  1.0000
  H   H21       1.0  0.3323035438281744  0.8783246572070599  0.637023911698497  1.0000
  H   H22       1.0  0.6676964567497921  0.12167534318092689  0.3629760880646536  1.0000
  H   H23       1.0  0.20637353747163845  0.027182135390989053  0.7124809992572144  1.0000
  H   H24       1.0  0.793626463113064  0.9728178647935446  0.28751900109842743  1.0000
  C   C1        1.0  0.790297878288002  0.45903910391016295  0.6796996926478616  1.0000
  C   C2        1.0  0.20970212100523755  0.5409608964726887  0.32030030711944363  1.0000
  C   C3        1.0  0.8828257338903053  0.3505982570492821  0.6499040031167932  1.0000
  C   C4        1.0  0.11717426540967031  0.6494017431301168  0.3500959972430031  1.0000
  C   C5        1.0  0.9965596574460636  0.1928257445120022  0.5873726782475881  1.0000
  C   C6        1.0  0.0034403418471760237  0.8071742558708497  0.41262732151971704  1.0000
  C   C7        1.0  0.9967960253076442  0.2522994668545272  0.6994727905425276  1.0000
  C   C8        1.0  0.0032039752703223313  0.7477005335334597  0.3005272092206229  1.0000
  C   C9        1.0  0.9452001343163167  0.35707257322711483  0.8010197685297749  1.0000
  C   C10       1.0  0.054799866261649975  0.642927427160872  0.1989802312333757  1.0000
  C   C11       1.0  0.33575999201036716  0.9384891368382553  0.8213646198174801  1.0000
  C   C12       1.0  0.6642400072828725  0.06151086354459661  0.17863537994982512  1.0000
  C   C13       1.0  0.4608027652208793  0.8259126796060327  0.8513588528443634  1.0000
  C   C14       1.0  0.5391972353570872  0.17408732078195416  0.1486411469187873  1.0000
  C   C15       1.0  0.6602833556003253  0.6664539115885859  0.9144228022558827  1.0000
  C   C16       1.0  0.3397166449843773  0.3335460885959478  0.0855771980997592  1.0000
  C   C17       1.0  0.5381690771229592  0.7404060553699001  0.8008234648080347  1.0000
  C   C18       1.0  0.4618309234617432  0.2595939448146337  0.19917653554760714  1.0000
  C   C19       1.0  0.37510290882642133  0.8580806618969091  0.6983435539939139  1.0000
  C   C20       1.0  0.6248970921512212  0.14191933739091475  0.3016564463263826  1.0000
  N   N1        1.0  0.6740761599014669  0.5568200164512406  0.6415959230309898  1.0000
  N   N2        1.0  0.325923841076176  0.4431799828365833  0.35840407728930673  1.0000
  N   N3        1.0  0.8855772912205999  0.3093494954686014  0.5789933536890457  1.0000
  N   N4        1.0  0.11442270847231606  0.6906505038140875  0.4210066466354054  1.0000
  N   N5        1.0  0.06587503814855994  0.15522908855986328  0.6597110878572289  1.0000
  N   N6        1.0  0.9341249624361424  0.8447709116246707  0.3402889124984129  1.0000
  N   N7        1.0  0.029843243302950618  0.2537240904210711  0.7760350934655945  1.0000
  N   N8        1.0  0.970156755990289  0.7462759099617807  0.22396490630171081  1.0000
  N   N9        1.0  0.8314026488898069  0.4552384114033479  0.7571682117302597  1.0000
  N   N10       1.0  0.1685973508031091  0.5447615878793409  0.24283178859419138  1.0000
  N   N11       1.0  0.2609516702552451  0.03021089573866116  0.860457165615067  1.0000
  N   N12       1.0  0.7390483307223974  0.9697891035491628  0.13954283470522952  1.0000
  N   N13       1.0  0.5404359444838732  0.7755304765864549  0.923602202955609  1.0000
  N   N14       1.0  0.4595640560940931  0.22446952380153198  0.07639779680754163  1.0000
  N   N15       1.0  0.6626143898601261  0.6420802723541029  0.84084949194413  1.0000
  N   N16       1.0  0.3373856107245763  0.35791972783043097  0.15915050841151193  1.0000
  N   N17       1.0  0.49560551497210864  0.7544222599466306  0.7234561727347867  1.0000
  N   N18       1.0  0.504394486005534  0.24557773934119345  0.27654382758550977  1.0000
  N   N19       1.0  0.29774242889794045  0.9466979434591792  0.7429770184258903  1.0000
  N   N20       1.0  0.7022575707949755  0.0533020558235095  0.25702298189856093  1.0000
  O   O1        1.0  0.4373047217145451  0.9704798543273635  0.007720980122729274  1.0000
  O   O2        1.0  0.5626952775786944  0.029520146055488358  0.992279019644576  1.0000
  I   I1        1.0  0.5390385407699174  0.8802113696121625  0.4804725744187426  1.0000
  I   I2        1.0  0.46096145891626245  0.11978862987397938  0.5195274253132174  1.0000
  I   I3        1.0  0.35905218299360375  0.3891410932213013  0.5752274124928763  1.0000
  I   I4        1.0  0.6409478162996357  0.6108589071615506  0.42477258727442896  1.0000
  I   I5        1.0  0.13456668447494652  0.632975146917917  0.6305173137286214  1.0000
  I   I6        1.0  0.8654333148182931  0.3670248534649347  0.36948268603868367  1.0000
  I   I7        1.0  0.9111849386557955  0.8644206893218431  0.6600684507826993  1.0000
  I   I8        1.0  0.08881506064418035  0.13557931085755573  0.3399315495770971  1.0000
  I   I9        1.0  0.6016754108809665  0.14339657754050916  0.7326306268807545  1.0000
  I   I10       1.0  0.39832458841227314  0.8566034228423427  0.26736937288655066  1.0000
  I   I11       1.0  0.8034629114299499  0.9869832410128485  0.8637747035264947  1.0000
  I   I12       1.0  0.1965370891547525  0.013016759171685328  0.1362252968291471  1.0000
  I   I13       1.0  0.035457418088609395  0.8105865515373455  0.9897479236739185  1.0000
  I   I14       1.0  0.9645425815975706  0.18941344794879614  0.01025207605804124  1.0000
  I   I15       1.0  0.2053774028411569  0.5814484169645302  0.9019883898193828  1.0000
  I   I16       1.0  0.7946225968450231  0.4185515825216115  0.09801160991257707  1.0000
  I   I17       1.0  0.40274080261386264  0.37219438374252434  0.8364640507123078  1.0000
  I   I18       1.0  0.5972591970723172  0.6278056157436175  0.16353594901965213  1.0000
