data_image0
_chemical_formula_structural       H66B2C60N2P2Cl6
_chemical_formula_sum              "H66 B2 C60 N2 P2 Cl6"
_cell_length_a       9.702909882174444
_cell_length_b       12.607140251182702
_cell_length_c       12.929154511160693
_cell_angle_alpha    112.76513892849543
_cell_angle_beta     98.93536510189219
_cell_angle_gamma    97.1317154274607

_space_group_name_H-M_alt    "P 1"
_space_group_IT_number       1

loop_
  _space_group_symop_operation_xyz
  'x, y, z'

loop_
  _atom_site_type_symbol
  _atom_site_label
  _atom_site_symmetry_multiplicity
  _atom_site_fract_x
  _atom_site_fract_y
  _atom_site_fract_z
  _atom_site_occupancy
  H   H1        1.0  0.4322999479400414  0.1639197001325849  0.28650545445545694  1.0000
  H   H2        1.0  0.5677000521920418  0.8360803000213864  0.7134945460399456  1.0000
  H   H3        1.0  0.36745259016970355  0.10655381053015427  0.47164025060192816  1.0000
  H   H4        1.0  0.6325474099623797  0.893446189623817  0.5283597498934742  1.0000
  H   H5        1.0  0.4569141509324781  0.2915362348789694  0.4624649855656074  1.0000
  H   H6        1.0  0.5430858489640233  0.7084637649130715  0.5375350140694912  1.0000
  H   H7        1.0  0.3970147083739957  0.3948204647974235  0.5737723917737823  1.0000
  H   H8        1.0  0.6029852915225057  0.6051795349946174  0.4262276078613163  1.0000
  H   H9        1.0  0.24589755288320347  0.9888174808737128  0.5462421351368253  1.0000
  H   H10       1.0  0.754102447013298  0.011182518918327966  0.4537578644982733  1.0000
  H   H11       1.0  0.12454451453451577  0.08822520748439695  0.5826638581926786  1.0000
  H   H12       1.0  0.8754554855975674  0.9117747926695741  0.4173361423027237  1.0000
  H   H13       1.0  0.1239882531783959  0.0034559821164632685  0.43494618668862267  1.0000
  H   H14       1.0  0.8760117467181056  0.9965440176755777  0.5650538129464759  1.0000
  H   H15       1.0  0.42771931857823153  0.14492623010095948  0.6715999351180366  1.0000
  H   H16       1.0  0.5722806815538516  0.8550737700530117  0.32840006537736577  1.0000
  H   H17       1.0  0.4835162525781189  0.26691358217032324  0.640331694697847  1.0000
  H   H18       1.0  0.5164837476856522  0.7330864187839841  0.3596683057998117  1.0000
  H   H19       1.0  0.3289579925915947  0.26189876400953443  0.7001497305142682  1.0000
  H   H20       1.0  0.6710420073049068  0.7381012357825065  0.2998502691208303  1.0000
  H   H21       1.0  0.25956917430242554  0.5283461133957793  0.5469099486450684  1.0000
  H   H22       1.0  0.7404308255940759  0.47165388639626155  0.4530900509900302  1.0000
  H   H23       1.0  0.20435262951872213  0.6483477621183231  0.4396538616977379  1.0000
  H   H24       1.0  0.7956473707450489  0.35165223883598423  0.5603461387999208  1.0000
  H   H25       1.0  0.2340925141046136  0.5833429827912344  0.23638778164655816  1.0000
  H   H26       1.0  0.7659074860274696  0.4166570173627368  0.7636122188488443  1.0000
  H   H27       1.0  0.3203931500643324  0.39925406677747094  0.1457680604459595  1.0000
  H   H28       1.0  0.6796068498321689  0.6007459330145699  0.8542319391891391  1.0000
  H   H29       1.0  0.1296686770109267  0.16881053123760875  0.10848757132046469  1.0000
  H   H30       1.0  0.8703313231211565  0.8311894689163624  0.8915124291749378  1.0000
  H   H31       1.0  0.014400716360346044  0.05888077799400254  0.9011059930274169  1.0000
  H   H32       1.0  0.9855992837717371  0.9411192221599687  0.09889400746798549  1.0000
  H   H33       1.0  0.16255414777588847  0.9938454817396218  0.7566199730968534  1.0000
  H   H34       1.0  0.8374458523561946  0.006154518414349324  0.243380027398549  1.0000
  H   H35       1.0  0.4260202990581439  0.03850449212902105  0.8178426455215453  1.0000
  H   H36       1.0  0.5739797010739391  0.9614955080249501  0.1821573549738573  1.0000
  H   H37       1.0  0.5435040337978884  0.14915975541767582  0.02664678467583958  1.0000
  H   H38       1.0  0.45649596609861304  0.8508402443743651  0.9733532149592591  1.0000
  H   H39       1.0  0.6836038059303551  0.17794565753751806  0.3126398084224943  1.0000
  H   H40       1.0  0.31639619396614627  0.8220543422545229  0.6873601912126044  1.0000
  H   H41       1.0  0.9411800274477987  0.25659970345747246  0.33667635208834407  1.0000
  H   H42       1.0  0.05881997244870261  0.7434002963345684  0.6633236475467545  1.0000
  H   H43       1.0  0.012758796335970598  0.4227851172193765  0.2863134973839169  1.0000
  H   H44       1.0  0.9872412035605308  0.5772148825726644  0.7136865022511818  1.0000
  H   H45       1.0  0.828258267484938  0.510335978862475  0.20901612673927597  1.0000
  H   H46       1.0  0.17174173241156349  0.4896640209295658  0.7909838728958225  1.0000
  H   H47       1.0  0.5726428145928141  0.43143227003585544  0.1816208426896223  1.0000
  H   H48       1.0  0.42735718553926916  0.5685677301181158  0.8183791578057801  1.0000
  H   H49       1.0  0.4556456485747754  0.698756501670567  0.10975737504276085  1.0000
  H   H50       1.0  0.5443543516889955  0.30124349928374017  0.8902426254548977  1.0000
  H   H51       1.0  0.7022062694237697  0.6724327730797528  0.08852432599017473  1.0000
  H   H52       1.0  0.29779373070831344  0.3275672270742185  0.9114756745052277  1.0000
  H   H53       1.0  0.2552690797717782  0.5285199061558766  0.021926370558444378  1.0000
  H   H54       1.0  0.744730920360305  0.47148009399809454  0.978073629936958  1.0000
  H   H55       1.0  0.3286664320503244  0.9101457734523479  0.15056083465688036  1.0000
  H   H56       1.0  0.6713335679778649  0.08985422714002902  0.8494391649804746  1.0000
  H   H57       1.0  0.17483666878362966  0.7764120714642366  0.9564876486077691  1.0000
  H   H58       1.0  0.8251633311128718  0.22358792832780428  0.04351235102732944  1.0000
  H   H59       1.0  0.9767652733216844  0.621279405066155  0.9403301919574228  1.0000
  H   H60       1.0  0.023234726574817167  0.378720594725886  0.059669807677675754  1.0000
  H   H61       1.0  0.9299456607555692  0.601578278902442  0.11662620034574572  1.0000
  H   H62       1.0  0.07005433937651388  0.3984217212515291  0.8833738001496566  1.0000
  H   H63       1.0  0.07998141184812321  0.7364279859816065  0.30856264392419325  1.0000
  H   H64       1.0  0.9200185880483782  0.26357201381043444  0.6914373557109054  1.0000
  H   H65       1.0  0.28577577246716757  0.8870029268386587  0.3235222686771704  1.0000
  H   H66       1.0  0.7142242276649157  0.11299707331531243  0.6764777318182321  1.0000
  B   B1        1.0  0.2359852438593309  0.2297043913881343  0.4718756584205357  1.0000
  B   B2        1.0  0.7640147560371705  0.7702956084039065  0.5281243412145629  1.0000
  C   C1        1.0  0.36449133934302946  0.33184288757803293  0.4830063671036441  1.0000
  C   C2        1.0  0.6355086607890538  0.6681571125759384  0.5169936333917584  1.0000
  C   C3        1.0  0.1903859485010678  0.04932366338482833  0.5220361224884076  1.0000
  C   C4        1.0  0.8096140515271215  0.9506763372075488  0.4779638771489473  1.0000
  C   C5        1.0  0.3907161903155413  0.20972738109161737  0.6427620438357043  1.0000
  C   C6        1.0  0.6092838095809601  0.7902726187004235  0.35723795579939427  1.0000
  C   C7        1.0  0.3445127560665239  0.36296556290777643  0.29753957996520547  1.0000
  C   C8        1.0  0.6554872438299776  0.6370344368842644  0.702460419669893  1.0000
  C   C9        1.0  0.3287293397478245  0.3984689297595559  0.4123064015552436  1.0000
  C   C10       1.0  0.6712706603842588  0.6015310703944153  0.5876935989401588  1.0000
  C   C11       1.0  0.2750028416862619  0.5010348211211227  0.4594903708511023  1.0000
  C   C12       1.0  0.7249971582102396  0.4989651786709181  0.5405096287839963  1.0000
  C   C13       1.0  0.2432279753994119  0.5681129124501741  0.3984752334714795  1.0000
  C   C14       1.0  0.7567720244970896  0.4318870873418668  0.6015247661636192  1.0000
  C   C15       1.0  0.26018537546197185  0.5320968181119666  0.285216971623793  1.0000
  C   C16       1.0  0.7398146244345296  0.46790318168007433  0.7147830280113057  1.0000
  C   C17       1.0  0.30903412750467524  0.4288723479314406  0.23462105593501104  1.0000
  C   C18       1.0  0.6909658723918262  0.5711276518606003  0.7653789437000876  1.0000
  C   C19       1.0  0.3437639271502829  0.16476713702577728  0.08034417451591488  1.0000
  C   C20       1.0  0.6562360727462184  0.8352328627662636  0.9196558251191836  1.0000
  C   C21       1.0  0.19452552056366235  0.13930995231981247  0.04513765293246302  1.0000
  C   C22       1.0  0.8054744795684209  0.8606900478341588  0.9548623475629394  1.0000
  C   C23       1.0  0.13004778341924314  0.07744412924383534  0.9287016418145541  1.0000
  C   C24       1.0  0.8699522164772583  0.9225558705482055  0.0712983578205445  1.0000
  C   C25       1.0  0.21368184135863463  0.04149354261234478  0.847591615237673  1.0000
  C   C26       1.0  0.7863181585378669  0.9585064571796962  0.15240838439742568  1.0000
  C   C27       1.0  0.36210880103093784  0.06659225990555924  0.8824229509461554  1.0000
  C   C28       1.0  0.6378911988655636  0.9334077398864816  0.11757704868894324  1.0000
  C   C29       1.0  0.42767611161675473  0.1280453490530412  0.9987768021349918  1.0000
  C   C30       1.0  0.5723238882797468  0.8719546507389997  0.0012231975001068787  1.0000
  C   C31       1.0  0.6127053750423618  0.2982026219720617  0.24370285353168325  1.0000
  C   C32       1.0  0.3872946250897214  0.7017973781819095  0.7562971469637192  1.0000
  C   C33       1.0  0.7161932952445206  0.2484298852538164  0.2869210512435972  1.0000
  C   C34       1.0  0.2838067046519809  0.7515701145382244  0.7130789483915013  1.0000
  C   C35       1.0  0.8601152669212934  0.29333851734881106  0.3013319351093645  1.0000
  C   C36       1.0  0.13988473297520812  0.7066614824432298  0.6986680645257342  1.0000
  C   C37       1.0  0.9002388755869015  0.3870228831570572  0.2730771241397734  1.0000
  C   C38       1.0  0.09976112430960005  0.6129771166349838  0.7269228754953252  1.0000
  C   C39       1.0  0.7968612446381396  0.43627783934714826  0.22976850496348702  1.0000
  C   C40       1.0  0.20313875525836184  0.5637221604448927  0.7702314946716116  1.0000
  C   C41       1.0  0.6528970059088722  0.39232877113775627  0.2147655542683137  1.0000
  C   C42       1.0  0.34710299411931717  0.6076712294546207  0.7852344453690412  1.0000
  C   C43       1.0  0.47603487076482215  0.6118168384003447  0.06258556832118069  1.0000
  C   C44       1.0  0.5239651291316794  0.3881831613916962  0.9374144313139178  1.0000
  C   C45       1.0  0.36240315046505034  0.5152746595395444  0.012397648484587529  1.0000
  C   C46       1.0  0.6375968494314511  0.4847253402524966  0.9876023511505112  1.0000
  C   C47       1.0  0.6138042223156709  0.5966953532670082  0.050240709735135294  1.0000
  C   C48       1.0  0.38619577758083046  0.4033046465250327  0.9497592898999633  1.0000
  C   C49       1.0  0.24161630996539296  0.8412838304554691  0.14144067399794316  1.0000
  C   C50       1.0  0.7583836899311084  0.15871616933657184  0.8585593256371554  1.0000
  C   C51       1.0  0.15556507358844643  0.7668756590635845  0.03361160352563364  1.0000
  C   C52       1.0  0.844434926308055  0.2331243407284564  0.9663883961094649  1.0000
  C   C53       1.0  0.043755942978623376  0.6798359741822043  0.024484551404259845  1.0000
  C   C54       1.0  0.9562440571534597  0.32016402597176685  0.9755154490911427  1.0000
  C   C55       1.0  0.017164561120291147  0.6691547970072659  0.12351895580073086  1.0000
  C   C56       1.0  0.982835439011792  0.3308452031467053  0.8764810446946716  1.0000
  C   C57       1.0  0.10262274241781341  0.7443759928602238  0.23153329111166143  1.0000
  C   C58       1.0  0.897377257478688  0.2556240069318172  0.7684667085234372  1.0000
  C   C59       1.0  0.21616738667708496  0.8294661322373457  0.24033481821058103  1.0000
  C   C60       1.0  0.7838326134549982  0.17053386791662545  0.7596651822848214  1.0000
  N   N1        1.0  0.2986401413084164  0.14558382321231908  0.5247656837260553  1.0000
  N   N2        1.0  0.7013598585880851  0.8544161765797219  0.4752343159090434  1.0000
  P   P1        1.0  0.42834466775696534  0.24237389876039817  0.2306022306650057  1.0000
  P   P2        1.0  0.5716553323751179  0.757626101393573  0.7693977698303966  1.0000
  Cl  Cl1       1.0  0.14836872291500425  0.13230690393468764  0.31675463496620965  1.0000
  Cl  Cl2       1.0  0.8516312769814972  0.8676930958573532  0.683245364668889  1.0000
  Cl  Cl3       1.0  0.0972211079060977  0.29186862562767896  0.5491794166874014  1.0000
  Cl  Cl4       1.0  0.9027788922259855  0.7081313745262922  0.45082058380800094  1.0000
  Cl  Cl5       1.0  0.4760174561269735  0.9316655553543093  0.6177982758890413  1.0000
  Cl  Cl6       1.0  0.5239825440051097  0.06833444479966182  0.3822017246063611  1.0000
