data_image0
_chemical_formula_structural       H22C28O4Cl4
_chemical_formula_sum              "H22 C28 O4 Cl4"
_cell_length_a       7.575809361573301
_cell_length_b       8.686423516965299
_cell_length_c       10.16485221711722
_cell_angle_alpha    97.72387513131582
_cell_angle_beta     103.46780007198137
_cell_angle_gamma    114.67451226251684

_space_group_name_H-M_alt    "P 1"
_space_group_IT_number       1

loop_
  _space_group_symop_operation_xyz
  'x, y, z'

loop_
  _atom_site_type_symbol
  _atom_site_label
  _atom_site_symmetry_multiplicity
  _atom_site_fract_x
  _atom_site_fract_y
  _atom_site_fract_z
  _atom_site_occupancy
  H   H1        1.0  0.7541049051247488  0.4910880572451678  0.4761854646446719  1.0000
  H   H2        1.0  0.24589509492762024  0.5089119427705749  0.5238145354665598  1.0000
  H   H3        1.0  0.7942698983018628  0.2000821552460456  0.9871622969730008  1.0000
  H   H4        1.0  0.20573010175050627  0.7999178447696971  0.012837703138230733  1.0000
  H   H5        1.0  0.10900750932765815  0.7622872653322192  0.1732308862358241  1.0000
  H   H6        1.0  0.8909924907247109  0.23771273468352344  0.8267691138754075  1.0000
  H   H7        1.0  0.6951932168263887  0.8007660562330544  0.01388191795275875  1.0000
  H   H8        1.0  0.3048067832259805  0.1992339437826883  0.9861180821584729  1.0000
  H   H9        1.0  0.38631736769817243  0.23820207823694112  0.8289756301720974  1.0000
  H   H10       1.0  0.6136826323541966  0.7617979217788016  0.17102436993913425  1.0000
  H   H11       1.0  0.005717991696087584  0.916903336050353  0.7999308229609354  1.0000
  H   H12       1.0  0.9942820083562817  0.0830966639653897  0.2000691771502963  1.0000
  H   H13       1.0  0.8828357925298198  0.9965191434141825  0.901349609808285  1.0000
  H   H14       1.0  0.11716420752254932  0.003480856601560236  0.09865039030294663  1.0000
  H   H15       1.0  0.7765288594386371  0.918091931572705  0.714963336346202  1.0000
  H   H16       1.0  0.22347114061373186  0.08190806844303763  0.2850366637650296  1.0000
  H   H17       1.0  0.4089504567488845  0.25191564691166196  0.5002085746132571  1.0000
  H   H18       1.0  0.5910495433034846  0.7480843531040807  0.4997914254979746  1.0000
  H   H19       1.0  0.39990004123860046  0.1154629863212024  0.6168998277372959  1.0000
  H   H20       1.0  0.6000999588137687  0.8845370136945403  0.38310017237393573  1.0000
  H   H21       1.0  0.62957788884473  0.23238314271085925  0.5771474628356588  1.0000
  H   H22       1.0  0.37042211120763907  0.7676168573048835  0.42285253727557276  1.0000
  C   C1        1.0  0.8071448305378647  0.4327834245410092  0.2918879789254591  1.0000
  C   C2        1.0  0.1928551690263161  0.5672165751255575  0.7081120201375455  1.0000
  C   C3        1.0  0.7648808489643055  0.29147079171938045  0.18090314598003895  1.0000
  C   C4        1.0  0.23511915108806358  0.7085292082963622  0.8190968541311927  1.0000
  C   C5        1.0  0.8375984975053675  0.31599542294218164  0.06864971057745577  1.0000
  C   C6        1.0  0.16240150254700159  0.684004577073561  0.9313502895337757  1.0000
  C   C7        1.0  0.9622005547152704  0.48613284478673796  0.059804746744307406  1.0000
  C   C8        1.0  0.03779944533709861  0.5138671552290047  0.9401952533669242  1.0000
  C   C9        1.0  0.011237744274125654  0.6277531996005848  0.1715298600331886  1.0000
  C   C10       1.0  0.9887622557782433  0.37224680041515784  0.828470140078043  1.0000
  C   C11       1.0  0.9359841527815819  0.6025647306652648  0.2832009036798679  1.0000
  C   C12       1.0  0.06401584727078731  0.39743526935047785  0.7167990964313637  1.0000
  C   C13       1.0  0.6901777472777831  0.5685262591589415  0.7110101011542628  1.0000
  C   C14       1.0  0.309822252774586  0.43147374085680124  0.2889898989569689  1.0000
  C   C15       1.0  0.735141324314561  0.7168799019808036  0.823272493251757  1.0000
  C   C16       1.0  0.2648586757378082  0.28312009803493915  0.1767275068594747  1.0000
  C   C17       1.0  0.6611317813928805  0.6875467351425455  0.9328062772163711  1.0000
  C   C18       1.0  0.3388682186594886  0.3124532648731973  0.06719372289486064  1.0000
  C   C19       1.0  0.5370427208832758  0.514255915310199  0.9423507172793966  1.0000
  C   C20       1.0  0.46295727916909335  0.48574408470554364  0.05764928283183519  1.0000
  C   C21       1.0  0.48749928510545043  0.3708786512589325  0.8283262823482443  1.0000
  C   C22       1.0  0.5125007149469187  0.6291213487568103  0.17167371776298732  1.0000
  C   C23       1.0  0.5577164832592876  0.39154052346283663  0.7161574448897269  1.0000
  C   C24       1.0  0.4422835167930815  0.608459476552906  0.28384255522150476  1.0000
  C   C25       1.0  0.857096260880776  0.8972745204504093  0.8102893568346593  1.0000
  C   C26       1.0  0.1429037391715932  0.10272547956533346  0.18971064327657233  1.0000
  C   C27       1.0  0.49627206488871645  0.23900441530062638  0.5970208564962398  1.0000
  C   C28       1.0  0.5037279351636528  0.7609955847151163  0.4029791436149919  1.0000
  O   O1        1.0  0.721879430549051  0.39426307880387157  0.39044586888745303  1.0000
  O   O2        1.0  0.27812056950331815  0.6057369212118712  0.6095541312237786  1.0000
  O   O3        1.0  0.7654868812522642  0.5993580890093135  0.6126959245537318  1.0000
  O   O4        1.0  0.23451311880010497  0.4006419110064292  0.3873040755574999  1.0000
  Cl  Cl1       1.0  0.6174587923102771  0.08109414860586926  0.19059059367217154  1.0000
  Cl  Cl2       1.0  0.38254120725390356  0.9189058510606973  0.8094094053908332  1.0000
  Cl  Cl3       1.0  0.0007266149115646405  0.7821259730522061  0.41577925727364434  1.0000
  Cl  Cl4       1.0  0.9992733851408045  0.21787402696353672  0.5842207428375873  1.0000
