data_image0
_chemical_formula_structural       H22C28O4Br4
_chemical_formula_sum              "H22 C28 O4 Br4"
_cell_length_a       7.6805234396281525
_cell_length_b       8.160060817751088
_cell_length_c       10.140865159620184
_cell_angle_alpha    75.2671890677021
_cell_angle_beta     75.64071663759097
_cell_angle_gamma    85.1134535117813

_space_group_name_H-M_alt    "P 1"
_space_group_IT_number       1

loop_
  _space_group_symop_operation_xyz
  'x, y, z'

loop_
  _atom_site_type_symbol
  _atom_site_label
  _atom_site_symmetry_multiplicity
  _atom_site_fract_x
  _atom_site_fract_y
  _atom_site_fract_z
  _atom_site_occupancy
  H   H1        1.0  0.758497346387885  0.49346099434676616  0.5260648535994686  1.0000
  H   H2        1.0  0.2415026538432599  0.5065390059712802  0.47393514688313515  1.0000
  H   H3        1.0  0.9652550775348855  0.7521053586837819  0.8319471567520962  1.0000
  H   H4        1.0  0.03474492170425507  0.24789464195269006  0.1680528426845621  1.0000
  H   H5        1.0  0.964138606120833  0.21019234830755396  0.008162095330172526  1.0000
  H   H6        1.0  0.03586139442188123  0.7898076523220504  0.9918379041034656  1.0000
  H   H7        1.0  0.5363743193939586  0.2455231585268266  0.1663552285513324  1.0000
  H   H8        1.0  0.46362568114875563  0.754476842102778  0.8336447708823057  1.0000
  H   H9        1.0  0.5368766880131436  0.7893948452189254  0.9872407517751727  1.0000
  H   H10       1.0  0.4631233125295707  0.2106051554106791  0.012759247658465474  1.0000
  H   H11       1.0  0.6137193061913241  0.12715010007008185  0.3761534599468879  1.0000
  H   H12       1.0  0.38628069445584945  0.872849899330935  0.6238465394822015  1.0000
  H   H13       1.0  0.5565309198770396  0.2595901790661511  0.49666941615251226  1.0000
  H   H14       1.0  0.44346908066567453  0.7404098215634534  0.5033305832811259  1.0000
  H   H15       1.0  0.7833597136898657  0.2358216964237144  0.41129154844925553  1.0000
  H   H16       1.0  0.2166402853421646  0.7641783026726117  0.5887084520318197  1.0000
  H   H17       1.0  0.5364933018826635  0.9082659074127498  0.28176747055564166  1.0000
  H   H18       1.0  0.4635066971493668  0.0917340916835764  0.7182325299254335  1.0000
  H   H19       1.0  0.6274669237106799  0.9763914286726959  0.09693994819553231  1.0000
  H   H20       1.0  0.37253307683203435  0.023608571956908755  0.9030600512381058  1.0000
  H   H21       1.0  0.7707386562583924  0.8935358789003998  0.21444826838351283  1.0000
  H   H22       1.0  0.22926134397275236  0.10646412141764645  0.785551732099091  1.0000
  C   C1        1.0  0.8438211777067937  0.43715493582225  0.708586582916716  1.0000
  C   C2        1.0  0.15617882153234697  0.5628450648142221  0.2914134165199423  1.0000
  C   C3        1.0  0.8789508988311585  0.600253671445094  0.7193868884703627  1.0000
  C   C4        1.0  0.1210491013999864  0.39974632887295225  0.2806131120122411  1.0000
  C   C5        1.0  0.9403825594994101  0.6233555780815047  0.8308417685301868  1.0000
  C   C6        1.0  0.0596174407317349  0.3766444222365417  0.16915823195241703  1.0000
  C   C7        1.0  0.9700772765466462  0.4863961440593351  0.9403851096773799  1.0000
  C   C8        1.0  0.02992272368449853  0.5136038562587112  0.05961489080522411  1.0000
  C   C9        1.0  0.9403492914909389  0.3223666730695686  0.9294119159095726  1.0000
  C   C10       1.0  0.059650707436632346  0.6776333272553451  0.07058808457605112  1.0000
  C   C11       1.0  0.8808621050471926  0.3005735542674264  0.8173396849882073  1.0000
  C   C12       1.0  0.11913789518395211  0.6994264460506199  0.18266031549439646  1.0000
  C   C13       1.0  0.6517172870252418  0.5638263732706438  0.2893815951785978  1.0000
  C   C14       1.0  0.34828271190232946  0.4361736270542701  0.7106184053070261  1.0000
  C   C15       1.0  0.6197980653041016  0.39314008659614397  0.28090981041284546  1.0000
  C   C16       1.0  0.38020193393503876  0.606859914040328  0.7190901890238128  1.0000
  C   C17       1.0  0.561700862920579  0.37379411948806557  0.16869450298734878  1.0000
  C   C18       1.0  0.4382991374150252  0.626205879601393  0.8313054974907063  1.0000
  C   C19       1.0  0.5304240417537547  0.512922861694716  0.05719224679864643  1.0000
  C   C20       1.0  0.46957595727827567  0.4870771374016102  0.9428077536824288  1.0000
  C   C21       1.0  0.5611545908819463  0.6795561304423312  0.0681099758149695  1.0000
  C   C22       1.0  0.4388454081500839  0.3204438686539949  0.9318900246661057  1.0000
  C   C23       1.0  0.6172938071330718  0.7074953496545064  0.1780977195310152  1.0000
  C   C24       1.0  0.3827061922105278  0.2925046497533779  0.8219022799010943  1.0000
  C   C25       1.0  0.6454173793810594  0.24524136500761964  0.39693205911566337  1.0000
  C   C26       1.0  0.35458262116165473  0.754758635621985  0.6030679403179748  1.0000
  C   C27       1.0  0.6399596232672071  0.881569468885338  0.19259422475422794  1.0000
  C   C28       1.0  0.3600403773799662  0.11843053051567884  0.8074057746748615  1.0000
  O   O1        1.0  0.7794302159848583  0.40049906452935535  0.6103153029749665  1.0000
  O   O2        1.0  0.22056978435074576  0.5995009345601034  0.38968469750308854  1.0000
  O   O3        1.0  0.7061479047409667  0.5929675440778857  0.38905369931489264  1.0000
  O   O4        1.0  0.29385209418660435  0.40703245624702816  0.6109463011707313  1.0000
  Br  Br1       1.0  0.8423244350858687  0.7936805180631265  0.5779508178254736  1.0000
  Br  Br2       1.0  0.1576755652497353  0.2063194810263323  0.4220491826525814  1.0000
  Br  Br3       1.0  0.8475463379739808  0.07842288084175303  0.8019828492497395  1.0000
  Br  Br4       1.0  0.15245366225716406  0.9215771194762932  0.1980171512328643  1.0000
