data_image0
_chemical_formula_structural       H48C36N4O8
_chemical_formula_sum              "H48 C36 N4 O8"
_cell_length_a       4.813977616397316
_cell_length_b       12.583296105466836
_cell_length_c       14.21497375811709
_cell_angle_alpha    90.0
_cell_angle_beta     96.75821864399477
_cell_angle_gamma    90.0

_space_group_name_H-M_alt    "P 1"
_space_group_IT_number       1

loop_
  _space_group_symop_operation_xyz
  'x, y, z'

loop_
  _atom_site_type_symbol
  _atom_site_label
  _atom_site_symmetry_multiplicity
  _atom_site_fract_x
  _atom_site_fract_y
  _atom_site_fract_z
  _atom_site_occupancy
  H   H1        1.0  0.14649968283236017  0.0945418179806764  0.5097223497825261  1.0000
  H   H2        1.0  0.3535003174507972  0.5945418177634505  0.9902776499861725  1.0000
  H   H3        1.0  0.8535003178805873  0.9054581815848718  0.4902776503509732  1.0000
  H   H4        1.0  0.6464996832621502  0.40545818180209764  0.009722350147326744  1.0000
  H   H5        1.0  0.7769786949441335  0.2374459080480449  0.5059469236918961  1.0000
  H   H6        1.0  0.7230213050743075  0.7374459086255233  0.9940530761164399  1.0000
  H   H7        1.0  0.2230213057688139  0.7625540915175032  0.49405307644160307  1.0000
  H   H8        1.0  0.2769786956284741  0.26255409173472916  0.005946923313179005  1.0000
  H   H9        1.0  0.036348098941589135  0.10382598319627877  0.20370818341937927  1.0000
  H   H10       1.0  0.46365190037407017  0.6038259837737572  0.2962918169593379  1.0000
  H   H11       1.0  0.9636519017713582  0.8961740163692693  0.7962918167141199  1.0000
  H   H12       1.0  0.5363480982470827  0.3961740165864953  0.703708183094216  1.0000
  H   H13       1.0  0.3269224225780496  0.9441333503102242  0.4118567715397316  1.0000
  H   H14       1.0  0.1730775788192384  0.44413335052745007  0.08814322821505051  1.0000
  H   H15       1.0  0.6730775781247321  0.05586664925532398  0.5881432278898873  1.0000
  H   H16       1.0  0.826922421893709  0.555866649038098  0.9118567719184487  1.0000
  H   H17       1.0  0.5485871263039709  0.036029582885125956  0.3633418076594046  1.0000
  H   H18       1.0  0.9514128727368064  0.5360295834626044  0.13665819205506963  1.0000
  H   H19       1.0  0.4514128723070164  0.9639704166804222  0.6366581916902689  1.0000
  H   H20       1.0  0.04858712797614089  0.4639704168976481  0.8633418080784295  1.0000
  H   H21       1.0  0.3117170585057401  0.9591196550446469  0.28594057538091905  1.0000
  H   H22       1.0  0.18828294079975358  0.45911965526187276  0.21405942429391767  1.0000
  H   H23       1.0  0.6882829422072073  0.04088034452090131  0.7140594247525801  1.0000
  H   H24       1.0  0.8117170578213994  0.5408803443036754  0.7859405757596363  1.0000
  H   H25       1.0  0.6968799483528179  0.3523339578787984  0.1935278886418252  1.0000
  H   H26       1.0  0.8031200527899196  0.8523339576615724  0.3064721118564747  1.0000
  H   H27       1.0  0.3031200523601295  0.6476660424814541  0.806472111491674  1.0000
  H   H28       1.0  0.1968799479230278  0.1476660419039757  0.6935278882770246  1.0000
  H   H29       1.0  0.4241502462899876  0.25760554649840217  0.1869094519659521  1.0000
  H   H30       1.0  0.07584975510730046  0.7576055462811763  0.31309054778883  1.0000
  H   H31       1.0  0.5758497544229597  0.7423944538618503  0.8130905481675471  1.0000
  H   H32       1.0  0.9241502455954812  0.24239445407907625  0.6869094516407888  1.0000
  H   H33       1.0  0.7228955597051735  0.23310060856993398  0.1258953931262177  1.0000
  H   H34       1.0  0.7771044393356039  0.7331006083527081  0.37410460658825656  1.0000
  H   H35       1.0  0.2771044389159795  0.7668993917903184  0.8741046069273362  1.0000
  H   H36       1.0  0.2228955613773435  0.26689939121284006  0.6258953935452428  1.0000
  H   H37       1.0  0.6446112722437103  0.958772745938844  0.09575644043898562  1.0000
  H   H38       1.0  0.8553887268072328  0.4587727461560699  0.40424355997936895  1.0000
  H   H39       1.0  0.35538872637744273  0.041227253626704166  0.9042435596145683  1.0000
  H   H40       1.0  0.14461127390571463  0.5412272542041826  0.5957564401541303  1.0000
  H   H41       1.0  0.3981515197320535  0.061951217190329234  0.08298541450443249  1.0000
  H   H42       1.0  0.10184847957344016  0.5619512169731034  0.4170145851704043  1.0000
  H   H43       1.0  0.6018484809808939  0.9380487831699231  0.9170145856290668  1.0000
  H   H44       1.0  0.8981515190477128  0.43804878338714914  0.5829854148831496  1.0000
  H   H45       1.0  0.00731009827654187  0.8295161587642501  0.1359237055996143  1.0000
  H   H46       1.0  0.4926899010391175  0.3295161581867718  0.3640762947791028  1.0000
  H   H47       1.0  0.9926899003446111  0.17048384159600224  0.8640762944539395  1.0000
  H   H48       1.0  0.5073100996738299  0.6704838413787763  0.6359237053543965  1.0000
  C   C1        1.0  0.12296912050045156  0.08708325472241968  0.3564441757223148  1.0000
  C   C2        1.0  0.37703088090700215  0.5870832545051937  0.14355582473634768  1.0000
  C   C3        1.0  0.8770308802124959  0.9129167456378328  0.6435558244111844  1.0000
  C   C4        1.0  0.6229691198059453  0.41291674506035436  0.8564441753971516  1.0000
  C   C5        1.0  0.04868153530842528  0.12604554138330493  0.44248852708288955  1.0000
  C   C6        1.0  0.4513184660888628  0.626045541166079  0.05751147267189252  1.0000
  C   C7        1.0  0.9513184654045223  0.8739544589769475  0.5575114730506097  1.0000
  C   C8        1.0  0.5486815346139189  0.37395445919417347  0.9424885267577263  1.0000
  C   C9        1.0  0.8468783177938135  0.20516601519679656  0.441409047115643  1.0000
  C   C10       1.0  0.6531216812571297  0.7051660149795707  0.0585909533027116  1.0000
  C   C11       1.0  0.153121682919134  0.7948339851634559  0.5585909530178562  1.0000
  C   C12       1.0  0.34687831736402336  0.29483398538068184  0.9414090467508422  1.0000
  C   C13       1.0  0.7939852886285631  0.21332314740919092  0.2768767336152652  1.0000
  C   C14       1.0  0.7060147125040087  0.7133231479866694  0.22312326617915434  1.0000
  C   C15       1.0  0.20601471208438432  0.7866768521563572  0.7231232665182339  1.0000
  C   C16       1.0  0.293985288198773  0.28667685237358315  0.7768767332504646  1.0000
  C   C17       1.0  0.9904325839376416  0.1321372004651172  0.27280373959981696  1.0000
  C   C18       1.0  0.5095674151133015  0.6321372010425956  0.2271962608185376  1.0000
  C   C19       1.0  0.009567414683511553  0.867862799100431  0.7271962604537369  1.0000
  C   C20       1.0  0.4904325835078514  0.36786279931765686  0.7728037392350163  1.0000
  C   C21       1.0  0.3376675818515003  0.0011673491489736377  0.3539455492303452  1.0000
  C   C22       1.0  0.16233241954578775  0.501167349726452  0.14605445052443694  1.0000
  C   C23       1.0  0.6623324188614471  0.9988326504165745  0.646054450903154  1.0000
  C   C24       1.0  0.8376675811671596  0.49883265063380045  0.8539455496090623  1.0000
  C   C25       1.0  0.6523181582649578  0.2665947691195608  0.19006374257994116  1.0000
  C   C26       1.0  0.8476818407859854  0.7665947689023349  0.3099362578384134  1.0000
  C   C27       1.0  0.3476818403561953  0.7334052312406916  0.8099362574736128  1.0000
  C   C28       1.0  0.15231815992696202  0.23340523066321325  0.6900637422950857  1.0000
  C   C29       1.0  0.22761335304406458  0.9097756179341917  0.051020236161596566  1.0000
  C   C30       1.0  0.2723866462614291  0.40977561815141766  0.4489797635132402  1.0000
  C   C31       1.0  0.7723866455669228  0.09022438163135636  0.948979763188077  1.0000
  C   C32       1.0  0.7276133544515183  0.5902243814141305  0.5510202366202591  1.0000
  C   C33       1.0  0.4628608444991491  0.9887608648575477  0.049443992847018316  1.0000
  C   C34       1.0  0.03713915689813904  0.4887608642800692  0.4505560069077638  1.0000
  C   C35       1.0  0.5371391562137984  0.01123913550270485  0.9505560072864809  1.0000
  C   C36       1.0  0.9628608438148084  0.5112391352854789  0.5494439932257354  1.0000
  N   N1        1.0  0.7226408616785507  0.24765149638703407  0.36070292718914265  1.0000
  N   N2        1.0  0.7773591373622266  0.7476514961698081  0.1392970725253316  1.0000
  N   N3        1.0  0.2773591369426023  0.7523485039732184  0.6392970728644113  1.0000
  N   N4        1.0  0.22264086335072072  0.25234850419044436  0.8607029276081676  1.0000
  O   O1        1.0  0.1727617865643252  0.8869334136666529  0.13819450044474915  1.0000
  O   O2        1.0  0.3272382127411685  0.3869334138838788  0.3618054992300876  1.0000
  O   O3        1.0  0.8272382141486223  0.11306658669359956  0.86180549968875  1.0000
  O   O4        1.0  0.6727617858799845  0.6130665864763737  0.6381945008234663  1.0000
  O   O5        1.0  0.09847998880311737  0.8702357457234566  0.9789996589676511  1.0000
  O   O6        1.0  0.4015200093882455  0.37023574594068254  0.5210003407211021  1.0000
  O   O7        1.0  0.9015200098078698  0.1297642538420915  0.021000340382022458  1.0000
  O   O8        1.0  0.5984799892329075  0.62976425441957  0.47899965933245175  1.0000
