data_image0
_chemical_formula_structural       H44C36N4O8
_chemical_formula_sum              "H44 C36 N4 O8"
_cell_length_a       8.07217033150539
_cell_length_b       16.151725546602197
_cell_length_c       6.796515739490111
_cell_angle_alpha    90.0
_cell_angle_beta     106.72022806850792
_cell_angle_gamma    90.0

_space_group_name_H-M_alt    "P 1"
_space_group_IT_number       1

loop_
  _space_group_symop_operation_xyz
  'x, y, z'

loop_
  _atom_site_type_symbol
  _atom_site_label
  _atom_site_symmetry_multiplicity
  _atom_site_fract_x
  _atom_site_fract_y
  _atom_site_fract_z
  _atom_site_occupancy
  H   H1        1.0  0.7901317896532393  0.07481838312032352  0.5197367427477417  1.0000
  H   H2        1.0  0.2098682107911389  0.5748183829159429  0.9802632578997345  1.0000
  H   H3        1.0  0.20986821037389367  0.9251816170900443  0.4802632575523716  1.0000
  H   H4        1.0  0.7901317892359939  0.42518161729442483  0.019736742400378947  1.0000
  H   H5        1.0  0.6289588340732027  0.3304107641379946  0.5034412799724101  1.0000
  H   H6        1.0  0.37104116637117535  0.8304107645527429  0.996558720675066  1.0000
  H   H7        1.0  0.37104116595393005  0.6695892354532443  0.49655872032770326  1.0000
  H   H8        1.0  0.6289588336559575  0.16958923565762485  0.003441279625047246  1.0000
  H   H9        1.0  0.16233270731431113  0.25768744385800757  0.5995889893192202  1.0000
  H   H10       1.0  0.8376672931452929  0.757687443653627  0.9004110098622184  1.0000
  H   H11       1.0  0.8376672927280476  0.7423125563523602  0.4004110095148556  1.0000
  H   H12       1.0  0.16233270688184  0.24231255655674078  0.09958899043789496  1.0000
  H   H13       1.0  0.41048628470404064  0.22592973360469618  0.4144056158639327  1.0000
  H   H14       1.0  0.5895137149058469  0.7259297334003155  0.0855943840888178  1.0000
  H   H15       1.0  0.5895137153230922  0.7740702666056716  0.5855943844361806  1.0000
  H   H16       1.0  0.4104862851212859  0.27407026619092323  0.9144056162112955  1.0000
  H   H17       1.0  0.4789140588654762  0.16134514621864776  0.6329361435069164  1.0000
  H   H18       1.0  0.5210859415941277  0.6613451460142672  0.8670638556745222  1.0000
  H   H19       1.0  0.5210859411616566  0.83865485399172  0.3670638567931969  1.0000
  H   H20       1.0  0.478914058448231  0.33865485357697167  0.1329361431595536  1.0000
  H   H21       1.0  0.4629939048258762  0.1193836896520101  0.38760986616490717  1.0000
  H   H22       1.0  0.5370060960774345  0.6193836894476296  0.11239013424712183  1.0000
  H   H23       1.0  0.5370060952012566  0.8806163105583577  0.612390134135206  1.0000
  H   H24       1.0  0.46299390394969836  0.3806163107627382  0.8876098660529915  1.0000
  H   H25       1.0  0.08629830336694742  0.40291824432151996  0.5447825299766551  1.0000
  H   H26       1.0  0.9137016957840077  0.9029182447362684  0.9552174702115425  1.0000
  H   H27       1.0  0.9137016966601854  0.5970817552697189  0.45521747032345816  1.0000
  H   H28       1.0  0.08629830424312522  0.09708175547409946  0.04478253008857082  1.0000
  H   H29       1.0  0.9581486135736067  0.42425875614519387  0.7126322451889605  1.0000
  H   H30       1.0  0.041851385577348334  0.9242587565599422  0.7873677549992372  1.0000
  H   H31       1.0  0.041851386453526124  0.575741243446045  0.2873677551111528  1.0000
  H   H32       1.0  0.9581486144497845  0.07574124365042556  0.2126322453008762  1.0000
  H   H33       1.0  0.8647404979590005  0.4337267420615451  0.44546938747589593  1.0000
  H   H34       1.0  0.13525950165088696  0.9337267418571645  0.05453061247685454  1.0000
  H   H35       1.0  0.1352595020681322  0.5662732581488227  0.5545306128242173  1.0000
  H   H36       1.0  0.8647404983762459  0.06627325835320322  0.9454693878232588  1.0000
  H   H37       1.0  0.42844910916135737  0.9414179231889407  0.8180217491900041  1.0000
  H   H38       1.0  0.5715508912830207  0.4414179227741924  0.681978251457472  1.0000
  H   H39       1.0  0.5715508908657754  0.058582077021426995  0.1819782511101092  1.0000
  H   H40       1.0  0.4284491087441122  0.5585820768170464  0.3180217488426413  1.0000
  H   H41       1.0  0.08324907697820166  0.11574075256580026  0.5963143413644084  1.0000
  H   H42       1.0  0.9167509234814023  0.6157407523614197  0.90368565781703  1.0000
  H   H43       1.0  0.9167509230489311  0.8842592476445675  0.40368565893570474  1.0000
  H   H44       1.0  0.08324907656095643  0.38425924722981913  0.0963143410170457  1.0000
  C   C1        1.0  0.8129218251035008  0.1415754832759058  0.5315080908275422  1.0000
  C   C2        1.0  0.18707817534087737  0.6415754836906541  0.9684919098199339  1.0000
  C   C3        1.0  0.18707817492363207  0.8584245163153331  0.46849190947257113  1.0000
  C   C4        1.0  0.8129218246862556  0.35842451651971363  0.03150809048017937  1.0000
  C   C5        1.0  0.6821152907004533  0.20025484340157243  0.5101856040743824  1.0000
  C   C6        1.0  0.3178847097591507  0.7002548431971918  0.989814395107056  1.0000
  C   C7        1.0  0.3178847093419055  0.7997451561896665  0.4898143947596933  1.0000
  C   C8        1.0  0.6821152902679821  0.299745156394047  0.010185605193057225  1.0000
  C   C9        1.0  0.7303461516461884  0.28383680349028845  0.5212360731328612  1.0000
  C   C10       1.0  0.2696538487981897  0.7838368032859079  0.9787639275146147  1.0000
  C   C11       1.0  0.26965384838094447  0.7161631967200792  0.478763927167252  1.0000
  C   C12       1.0  0.7303461512289432  0.21616319692445987  0.021236072785498467  1.0000
  C   C13       1.0  0.9025279648496533  0.3080190717484416  0.5520850848354476  1.0000
  C   C14       1.0  0.09747203559472485  0.808019071544061  0.9479149158120286  1.0000
  C   C15       1.0  0.09747203517747961  0.6919809284619262  0.4479149154646657  1.0000
  C   C16       1.0  0.902527964432408  0.19198092866630667  0.052085084488084764  1.0000
  C   C17       1.0  0.02521215345616483  0.24518162648157915  0.5743059065780641  1.0000
  C   C18       1.0  0.9747878456947902  0.7451816268963275  0.9256940936101334  1.0000
  C   C19       1.0  0.9747878465709682  0.7548183731096597  0.4256940937220492  1.0000
  C   C20       1.0  0.02521215433234262  0.2548183733140403  0.07430590668997983  1.0000
  C   C21       1.0  0.49830889635045184  0.1751211579121357  0.4825269538226291  1.0000
  C   C22       1.0  0.5016911032594358  0.6751211583268841  0.017473046130121368  1.0000
  C   C23       1.0  0.501691103676681  0.8248788416791031  0.5174730464774842  1.0000
  C   C24       1.0  0.4983088967676971  0.32487884188348376  0.9825269541699919  1.0000
  C   C25       1.0  0.9565134625019774  0.3970381889846474  0.5637757542546163  1.0000
  C   C26       1.0  0.043486537942400656  0.8970381893993956  0.9362242463928598  1.0000
  C   C27       1.0  0.04348653752515541  0.6029618106065915  0.43622424604549703  1.0000
  C   C28       1.0  0.9565134620847322  0.10296181081097207  0.06377575390725353  1.0000
  C   C29       1.0  0.31765353678653546  0.06704967508736684  0.8224697961253205  1.0000
  C   C30       1.0  0.6823464623796456  0.5670496748829862  0.6775302025968396  1.0000
  C   C31       1.0  0.6823464632558233  0.9329503251230009  0.1775302027087553  1.0000
  C   C32       1.0  0.3176535376474874  0.4329503253273815  0.3224697977032737  1.0000
  C   C33       1.0  0.4396355434540704  0.9978391468761962  0.9089368960582573  1.0000
  C   C34       1.0  0.5603644556968846  0.4978391464614478  0.5910631041299403  1.0000
  C   C35       1.0  0.5603644565730624  0.0021608533341716018  0.09106310424185603  1.0000
  C   C36       1.0  0.43963554433024815  0.502160853129791  0.40893689617017304  1.0000
  N   N1        1.0  0.9782610463435126  0.1652141854627641  0.564149431077214  1.0000
  N   N2        1.0  0.021738952807442435  0.6652141852583835  0.9358505691109835  1.0000
  N   N3        1.0  0.02173895368362022  0.8347858147476037  0.4358505692228992  1.0000
  N   N4        1.0  0.9782610472196904  0.33478581433285537  0.06414943118912972  1.0000
  O   O1        1.0  0.32855167862856616  0.13425576008850487  0.9191309814341362  1.0000
  O   O2        1.0  0.6714483205223889  0.6342557598841243  0.5808690187540614  1.0000
  O   O3        1.0  0.6714483201051437  0.8657442401218629  0.08086901840669852  1.0000
  O   O4        1.0  0.32855167950474395  0.36574423970711456  0.41913098154605194  1.0000
  O   O5        1.0  0.20619223044952678  0.051182710950280395  0.6469344621937281  1.0000
  O   O6        1.0  0.7938077687014283  0.5511827107458999  0.8530655379944696  1.0000
  O   O7        1.0  0.7938077695776061  0.9488172892600873  0.3530655381063853  1.0000
  O   O8        1.0  0.20619223132570458  0.4488172894644679  0.14693446230564375  1.0000
