data_image0
_chemical_formula_structural       H48C56N2O8F6S2
_chemical_formula_sum              "H48 C56 N2 O8 F6 S2"
_cell_length_a       9.824733713535228
_cell_length_b       10.055981824754076
_cell_length_c       13.540629191393478
_cell_angle_alpha    93.47197786700322
_cell_angle_beta     100.95197818426361
_cell_angle_gamma    112.76697417883939

_space_group_name_H-M_alt    "P 1"
_space_group_IT_number       1

loop_
  _space_group_symop_operation_xyz
  'x, y, z'

loop_
  _atom_site_type_symbol
  _atom_site_label
  _atom_site_symmetry_multiplicity
  _atom_site_fract_x
  _atom_site_fract_y
  _atom_site_fract_z
  _atom_site_occupancy
  H   H1        1.0  0.9809054147453719  0.298938658612191  0.5435239993137087  1.0000
  H   H2        1.0  0.019094584631037578  0.7010613420229792  0.4564760008079523  1.0000
  H   H3        1.0  0.5722377867914461  0.1979113087456724  0.945737177774546  1.0000
  H   H4        1.0  0.4277622131535943  0.8020886907941939  0.054262822380888295  1.0000
  H   H5        1.0  0.8178821410570357  0.3797005260667293  0.9191213863943108  1.0000
  H   H6        1.0  0.18211785888800472  0.620299473473137  0.08087861376112358  1.0000
  H   H7        1.0  0.8772660970457895  0.3728194048235773  0.7494258574965886  1.0000
  H   H8        1.0  0.12273390289925078  0.627180594716289  0.2505741426588456  1.0000
  H   H9        1.0  0.6934251652775452  0.18760352276190445  0.6033519942440733  1.0000
  H   H10       1.0  0.30657483513350375  0.812396477868437  0.39664800602546546  1.0000
  H   H11       1.0  0.334935812897329  0.9827488632019947  0.8762934052490113  1.0000
  H   H12       1.0  0.6650641870558944  0.017251136339048356  0.12370659416910644  1.0000
  H   H13       1.0  0.4290502820260417  0.7387575038153529  0.8192097648368456  1.0000
  H   H14       1.0  0.5709497179189988  0.2612424957245134  0.18079023531858865  1.0000
  H   H15       1.0  0.5937329127041503  0.6045277145189886  0.8272351011095764  1.0000
  H   H16       1.0  0.4062670872408901  0.39547228502087767  0.1727648990458578  1.0000
  H   H17       1.0  0.5073921812975165  0.36329099042310675  0.724623252782904  1.0000
  H   H18       1.0  0.49260781864752395  0.6367090091167595  0.2753767473725305  1.0000
  H   H19       1.0  0.24759406117163446  0.24669556584032892  0.6092271683907885  1.0000
  H   H20       1.0  0.7524059392394145  0.7533044347900126  0.3907728318787502  1.0000
  H   H21       1.0  0.888436570096896  0.4862792036417017  0.577174095047623  1.0000
  H   H22       1.0  0.11156342984814445  0.5137207958981647  0.42282590510781143  1.0000
  H   H23       1.0  0.0869762973226716  0.008570686112228824  0.6451614929400515  1.0000
  H   H24       1.0  0.9130237030883774  0.9914293145181128  0.35483850732948724  1.0000
  H   H25       1.0  0.8181765393573623  0.9998382755931309  0.5618078518016951  1.0000
  H   H26       1.0  0.1818234605876781  0.000161723946735333  0.43819214835373915  1.0000
  H   H27       1.0  0.5090754189554509  0.6448433708507608  0.4835159536769324  1.0000
  H   H28       1.0  0.49092458145559803  0.3551566297795808  0.5164840465926064  1.0000
  H   H29       1.0  0.5345822976519318  0.8262979953271665  0.5237873359836549  1.0000
  H   H30       1.0  0.46541770276730005  0.1737020053043518  0.47621266354856745  1.0000
  H   H31       1.0  0.4871690023566114  0.6921464456590415  0.606116112110413  1.0000
  H   H32       1.0  0.5128309980544375  0.3078535549713001  0.3938838881591256  1.0000
  H   H33       1.0  0.26291935866577876  0.981335815399166  0.1784174786319044  1.0000
  H   H34       1.0  0.7370806412792617  0.018664184140700032  0.82158252152353  1.0000
  H   H35       1.0  0.0801777609215092  0.9591062012133179  0.10713371270686106  1.0000
  H   H36       1.0  0.9198222390235311  0.04089379832654809  0.8928662874485732  1.0000
  H   H37       1.0  0.19085068880762932  0.11733936020818181  0.19705749565820618  1.0000
  H   H38       1.0  0.8091493111374112  0.8826606393316844  0.802942504497228  1.0000
  H   H39       1.0  0.3715928226635853  0.3222781556475546  0.9570628030116476  1.0000
  H   H40       1.0  0.6284071772814552  0.6777218438923117  0.04293719714378665  1.0000
  H   H41       1.0  0.21788766903171758  0.1874762622763944  0.8652689968674435  1.0000
  H   H42       1.0  0.7821123313875143  0.812523738355124  0.13473100266477878  1.0000
  H   H43       1.0  0.20460444903593739  0.4298388571751149  0.855112224544566  1.0000
  H   H44       1.0  0.795395550909103  0.5701611423647513  0.14488777561086819  1.0000
  H   H45       1.0  0.2073305259325891  0.4516679047266545  0.9866930122140088  1.0000
  H   H46       1.0  0.7926694740124514  0.5483320948132118  0.013306987941425439  1.0000
  H   H47       1.0  0.04802485021610615  0.3136095216299929  0.9006105408433637  1.0000
  H   H48       1.0  0.9519751497289344  0.6863904779098733  0.09938945931207079  1.0000
  C   C1        1.0  0.6004276152076601  0.1988353108854388  0.8717464051029619  1.0000
  C   C2        1.0  0.3995723847455632  0.8011646886556042  0.12825359431515598  1.0000
  C   C3        1.0  0.7359974895370545  0.298664812252325  0.8563264652903219  1.0000
  C   C4        1.0  0.26400251040798606  0.7013351872875413  0.14367353486511256  1.0000
  C   C5        1.0  0.7700185663298865  0.29462918400394145  0.7603605237207899  1.0000
  C   C6        1.0  0.229981433615154  0.7053708155359248  0.23963947643464448  1.0000
  C   C7        1.0  0.6685176484801622  0.1923595141962648  0.678246260321764  1.0000
  C   C8        1.0  0.3314823514648784  0.8076404853436016  0.32175373983367017  1.0000
  C   C9        1.0  0.531926388074093  0.09356986213270774  0.6944580232972539  1.0000
  C   C10       1.0  0.4680736123369558  0.9064301384976339  0.3055419769722849  1.0000
  C   C11       1.0  0.495601912066228  0.09311806533712588  0.790014598389031  1.0000
  C   C12       1.0  0.5043980878869955  0.9068819342039173  0.2099854010290868  1.0000
  C   C13       1.0  0.3564663787951865  0.9824181658583268  0.8003761733024131  1.0000
  C   C14       1.0  0.6435336216158625  0.017581834772014686  0.19962382696712574  1.0000
  C   C15       1.0  0.25782768463360894  0.8806212526007868  0.719849922098957  1.0000
  C   C16       1.0  0.7421723157856229  0.11937874803073155  0.28015007743326537  1.0000
  C   C17       1.0  0.2931830904843215  0.889168006748489  0.6199923515465321  1.0000
  C   C18       1.0  0.7068169084260794  0.11083199279620594  0.3800076484610243  1.0000
  C   C19       1.0  0.38798780030773306  0.6332755745171361  0.7723029492106894  1.0000
  C   C20       1.0  0.6120121990686763  0.36672442611803413  0.22769705091097156  1.0000
  C   C21       1.0  0.48032905835879786  0.5570478663559759  0.777322101904066  1.0000
  C   C22       1.0  0.5196709410176115  0.44295213427919417  0.22267789821759496  1.0000
  C   C23       1.0  0.43119886444334926  0.41882658102903947  0.719115059226976  1.0000
  C   C24       1.0  0.5688011355098742  0.5811734185120035  0.28088494019114185  1.0000
  C   C25       1.0  0.28696580928136334  0.3530485767368074  0.6551928572400332  1.0000
  C   C26       1.0  0.7130341906636771  0.6469514228030588  0.34480714291540104  1.0000
  C   C27       1.0  0.19354834905169468  0.4289973747002921  0.650528919147603  1.0000
  C   C28       1.0  0.8064516498587062  0.5710026248444027  0.3494710808599534  1.0000
  C   C29       1.0  0.24108665872204407  0.5699145355760266  0.7081210289214407  1.0000
  C   C30       1.0  0.7589133416890048  0.43008546505431494  0.2918789713480981  1.0000
  C   C31       1.0  0.11418174323028446  0.6113701729921459  0.6844922119260969  1.0000
  C   C32       1.0  0.8858182556801164  0.388629826552549  0.3155077880814595  1.0000
  C   C33       1.0  2.331318711531098e-05  0.4975118319712581  0.6160000507086605  1.0000
  C   C34       1.0  0.9999766867579251  0.502488167568608  0.38399994944677374  1.0000
  C   C35       1.0  0.10946389912148612  0.753957038990393  0.7249354048623442  1.0000
  C   C36       1.0  0.8905361008235544  0.24604296054947333  0.2750645952930902  1.0000
  C   C37       1.0  0.09486414562836294  0.7459776568670639  0.8374435010866154  1.0000
  C   C38       1.0  0.9051358543248605  0.25402234267397916  0.16255649833150254  1.0000
  C   C39       1.0  0.9758819327860686  0.7832014809993084  0.6687936871200397  1.0000
  C   C40       1.0  0.02411806715897191  0.21679851854055782  0.33120631303539466  1.0000
  C   C41       1.0  0.9815631697183205  0.9124948335558145  0.6364931920261071  1.0000
  C   C42       1.0  0.018436829192080343  0.08750516598888032  0.3635068079814493  1.0000
  C   C43       1.0  0.8366851004908458  0.9085941128865938  0.59190302424868  1.0000
  C   C44       1.0  0.16331489945419467  0.09140588665327251  0.4080969759067542  1.0000
  C   C45       1.0  0.7190067160214314  0.7768997174304625  0.5909132431502918  1.0000
  C   C46       1.0  0.2809932843978005  0.22310028320105593  0.4090867563819306  1.0000
  C   C47       1.0  0.5533334170076916  0.7320522461500562  0.5490743462829377  1.0000
  C   C48       1.0  0.4466665834115402  0.26794775448146224  0.4509256532492846  1.0000
  C   C49       1.0  0.2675234034566033  0.11144668754113461  0.059575727966284714  1.0000
  C   C50       1.0  0.73247659649662  0.8885533119999084  0.9404242714518332  1.0000
  C   C51       1.0  0.19691930214738243  0.03752971530787494  0.1411061167390617  1.0000
  C   C52       1.0  0.803080697797658  0.9624702842319914  0.8588938834163727  1.0000
  C   C53       1.0  0.2473418038845523  0.2663247958786576  0.9340720662087371  1.0000
  C   C54       1.0  0.7526581960686711  0.7336752036623855  0.06592793320938095  1.0000
  C   C55       1.0  0.17210126850373764  0.371287286365296  0.9182135375571127  1.0000
  C   C56       1.0  0.8278987319073112  0.6287127142650456  0.08178646271242618  1.0000
  N   N1        1.0  0.04683678628136643  0.3888825938769654  0.5964819416448468  1.0000
  N   N2        1.0  0.9531632141378654  0.611117406754553  0.4035180578873755  1.0000
  O   O1        1.0  0.4311222933556376  0.9942626634258667  0.6130324185691335  1.0000
  O   O2        1.0  0.5688777070554114  0.005737337204474915  0.3869675817004054  1.0000
  O   O3        1.0  0.21289709230837203  0.8130469140774241  0.5388959026851443  1.0000
  O   O4        1.0  0.7871029076366685  0.1869530854624422  0.4611040974702899  1.0000
  O   O5        1.0  0.3803685718830247  0.10687563513349428  0.0358384130965711  1.0000
  O   O6        1.0  0.6196314285280242  0.8931243654968474  0.9641615871729677  1.0000
  O   O7        1.0  0.1912284898905557  0.18652320174603285  0.014453640843932487  1.0000
  O   O8        1.0  0.8087715094858536  0.8134767988891374  0.9855463592777286  1.0000
  F   F1        1.0  0.08458722145931785  0.8662755102812525  0.8816145953334441  1.0000
  F   F2        1.0  0.9154127789517311  0.13372449034908906  0.11838540493609466  1.0000
  F   F3        1.0  0.9679227840809741  0.6291268193225806  0.8435676850208194  1.0000
  F   F4        1.0  0.03207721586406644  0.3708731802172856  0.15643231513461497  1.0000
  F   F5        1.0  0.21398231079706345  0.730564068305292  0.8980975949107889  1.0000
  F   F6        1.0  0.786017689147977  0.2694359312345744  0.10190240524464546  1.0000
  S   S1        1.0  0.7881553717080207  0.6584750299379767  0.645799653344355  1.0000
  S   S2        1.0  0.2118446287030281  0.3415249706923648  0.3542003469251838  1.0000
