data_image0
_chemical_formula_structural       H74C62N10O20S2
_chemical_formula_sum              "H74 C62 N10 O20 S2"
_cell_length_a       9.530298910957992
_cell_length_b       11.575092213251024
_cell_length_c       15.109607290001442
_cell_angle_alpha    90.0
_cell_angle_beta     106.04810209567032
_cell_angle_gamma    90.0

_space_group_name_H-M_alt    "P 1"
_space_group_IT_number       1

loop_
  _space_group_symop_operation_xyz
  'x, y, z'

loop_
  _atom_site_type_symbol
  _atom_site_label
  _atom_site_symmetry_multiplicity
  _atom_site_fract_x
  _atom_site_fract_y
  _atom_site_fract_z
  _atom_site_occupancy
  H   H1        1.0  0.30597273108500783  0.10272818290283221  0.20463416147178115  1.0000
  H   H2        1.0  0.6940272693727213  0.6027281831943623  0.7953658385465436  1.0000
  H   H3        1.0  0.4488647875789009  0.9996941550714411  0.2316220398358411  1.0000
  H   H4        1.0  0.5511352117870024  0.49969415564383507  0.7683779599895615  1.0000
  H   H5        1.0  0.763226359937128  0.9525718998054674  0.4522929761425941  1.0000
  H   H6        1.0  0.23677364052060124  0.4525719003778613  0.5477070238757304  1.0000
  H   H7        1.0  0.6743753543414286  0.9778986397224414  0.3356249590554096  1.0000
  H   H8        1.0  0.32562464611630043  0.4778986402948353  0.664375040962915  1.0000
  H   H9        1.0  0.5756094068555138  0.8015796124179685  0.4580983299214626  1.0000
  H   H10       1.0  0.4243905925103895  0.3015796121264383  0.5419016699039401  1.0000
  H   H11       1.0  0.36046920836132845  0.869505168043341  0.41163898473753757  1.0000
  H   H12       1.0  0.6395307920964007  0.36950516775181097  0.5883610152807871  1.0000
  H   H13       1.0  0.2562053883669806  0.6845178089319616  0.2749095716993415  1.0000
  H   H14       1.0  0.7437946120907485  0.18451780864043138  0.7250904283189832  1.0000
  H   H15       1.0  0.1899557607529607  0.716756232879272  0.3705745804252941  1.0000
  H   H16       1.0  0.8100442386129426  0.21675623345166597  0.6294254194001085  1.0000
  H   H17       1.0  0.002704740246906171  0.7606743711225286  0.20358717532192358  1.0000
  H   H18       1.0  0.9972952602108229  0.2606743708309985  0.7964128246964012  1.0000
  H   H19       1.0  0.011609908225244171  0.8624225670160984  0.36719242251964124  1.0000
  H   H20       1.0  0.9883900922324851  0.36242256672456824  0.6328075774986834  1.0000
  H   H21       1.0  0.9219190101983528  0.9415273381169091  0.26808600880903066  1.0000
  H   H22       1.0  0.0780809902593764  0.4415273386893031  0.731913991209294  1.0000
  H   H23       1.0  0.10608303762676606  0.0839388060241736  0.3034580503054003  1.0000
  H   H24       1.0  0.8939169628309631  0.5839388054517797  0.6965419497129245  1.0000
  H   H25       1.0  0.19861627083995564  0.008942050576625962  0.40332262930742296  1.0000
  H   H26       1.0  0.8013837296177735  0.5089420500042321  0.5966773707109015  1.0000
  H   H27       1.0  0.9896559001929315  0.03337458854606381  0.16171257186105342  1.0000
  H   H28       1.0  0.01034409917297185  0.5333745888375939  0.8382874279643493  1.0000
  H   H29       1.0  0.9792477857204395  0.9317265842300304  0.0720796045860942  1.0000
  H   H30       1.0  0.020752214737289613  0.4317265848024244  0.9279203954322305  1.0000
  H   H31       1.0  0.11233952879253986  0.04212677281670181  0.09325093357834222  1.0000
  H   H32       1.0  0.8876604716651892  0.5421267722443079  0.9067490664399825  1.0000
  H   H33       1.0  0.29142741635810615  0.893648616307198  0.09343378509034213  1.0000
  H   H34       1.0  0.7085725840996231  0.39364861601566786  0.9065662149279825  1.0000
  H   H35       1.0  0.16224740219259134  0.7802938822085848  0.08011051075273166  1.0000
  H   H36       1.0  0.8377525971691132  0.2802938819170545  0.9198894897337646  1.0000
  H   H37       1.0  0.3274838748140967  0.7754919351505414  0.17067868873409517  1.0000
  H   H38       1.0  0.6725161256436324  0.2754919348590113  0.8293213112842296  1.0000
  H   H39       1.0  0.6411596497821821  0.7714558524015404  0.22754590037566036  1.0000
  H   H40       1.0  0.35884034958372113  0.27145585297393415  0.7724540994497423  1.0000
  H   H41       1.0  0.8203487829674928  0.6276710540312341  0.19735854974203698  1.0000
  H   H42       1.0  0.17965121639841047  0.12767105373970392  0.8026414500833656  1.0000
  H   H43       1.0  0.9872048236677956  0.56934537873103  0.48961303010003254  1.0000
  H   H44       1.0  0.012795176789933463  0.06934537843949984  0.5103869699182921  1.0000
  H   H45       1.0  0.8054341761009183  0.7073812630733494  0.5187782649464397  1.0000
  H   H46       1.0  0.19456582435681077  0.20738126364574322  0.481221735071885  1.0000
  H   H47       1.0  0.45882894720821693  0.11269554107799407  0.525013199901345  1.0000
  H   H48       1.0  0.5411710532495122  0.6126955413695242  0.4749868001169797  1.0000
  H   H49       1.0  0.6854230890469974  0.9112120133199032  0.5861672966780846  1.0000
  H   H50       1.0  0.3145769103189057  0.4112120138922971  0.413832703147318  1.0000
  H   H51       1.0  0.7137040689080719  0.8598342325606975  0.7327218686921902  1.0000
  H   H52       1.0  0.2862959315496572  0.35983423226916744  0.26727813132613437  1.0000
  H   H53       1.0  0.7336143536108111  0.8615166433476894  0.052293077852678914  1.0000
  H   H54       1.0  0.26638564684691807  0.36151664392008337  0.9477069221656458  1.0000
  H   H55       1.0  0.45251017189012943  0.1430350687059442  0.927161592347857  1.0000
  H   H56       1.0  0.5474898274757738  0.6430350689974743  0.07283840747754561  1.0000
  H   H57       1.0  0.49186467532913525  0.09355846416154288  0.7754244390402303  1.0000
  H   H58       1.0  0.508135324036768  0.593558464453073  0.22457556078517232  1.0000
  H   H59       1.0  0.7072759874379368  0.4098528834672288  0.3992450677586291  1.0000
  H   H60       1.0  0.2927240130197922  0.909852883758759  0.6007549322596956  1.0000
  H   H61       1.0  0.8598505248232632  0.35118752275220805  0.485040033492664  1.0000
  H   H62       1.0  0.14014947454264015  0.8511875230437381  0.5149599663327387  1.0000
  H   H63       1.0  0.689244151946268  0.27972748038182577  0.45949137934249484  1.0000
  H   H64       1.0  0.3107558474196353  0.779727480673356  0.5405086204829077  1.0000
  H   H65       1.0  0.9489254876228049  0.24261542701017078  0.2285244313248571  1.0000
  H   H66       1.0  0.05107451283492415  0.7426154273017009  0.7714755686934676  1.0000
  H   H67       1.0  0.7875921552539428  0.15705010176237952  0.2054509817305811  1.0000
  H   H68       1.0  0.21240784520378628  0.6570501020539097  0.7945490182877436  1.0000
  H   H69       1.0  0.8076523970476925  0.2613951357153118  0.0635681715502321  1.0000
  H   H70       1.0  0.1923476034058379  0.761395135142918  0.9364318291291862  1.0000
  H   H71       1.0  0.814905874045493  0.39629327226859656  0.1202781530635144  1.0000
  H   H72       1.0  0.18509412532041042  0.8962932716962027  0.8797218467618882  1.0000
  H   H73       1.0  0.6520238336353718  0.3110114998374509  0.0959965692356228  1.0000
  H   H74       1.0  0.3479761657305316  0.811011500128981  0.9040034305897798  1.0000
  C   C1        1.0  0.26168168748098514  0.9552298371620942  0.2800473392959544  1.0000
  C   C2        1.0  0.7383183118849183  0.4552298377344881  0.7199526605294482  1.0000
  C   C3        1.0  0.3647649874084349  0.04178830639865332  0.2575992575592007  1.0000
  C   C4        1.0  0.6352350119574685  0.5417883058262595  0.7424007422662019  1.0000
  C   C5        1.0  0.5568957093887568  0.036425613915828964  0.4301998521101696  1.0000
  C   C6        1.0  0.44310428997714646  0.5364256133434351  0.569800147715233  1.0000
  C   C7        1.0  0.655473997542016  0.9524460347174699  0.40143925553464255  1.0000
  C   C8        1.0  0.3445260029157131  0.4524460344259397  0.5985607444836821  1.0000
  C   C9        1.0  0.5970397546907873  0.8265189584449079  0.39238645692691826  1.0000
  C   C10       1.0  0.40296024467511604  0.32651895901730177  0.6076135428984843  1.0000
  C   C11       1.0  0.3349484698263383  0.8489512030626009  0.3378991426620263  1.0000
  C   C12       1.0  0.6650515306313908  0.3489512036349947  0.6621008573562984  1.0000
  C   C13       1.0  0.21574113244961773  0.7543707176694295  0.3102069015545194  1.0000
  C   C14       1.0  0.7842588680081113  0.2543707173778994  0.6897930984638053  1.0000
  C   C15       1.0  0.08540942819354098  0.8182504057425429  0.2462198894628833  1.0000
  C   C16       1.0  0.9145905722641882  0.31825040545101285  0.7537801105554414  1.0000
  C   C17       1.0  0.02766950243999973  0.9045391247953887  0.3055641543196875  1.0000
  C   C18       1.0  0.9723304980177294  0.4045391253677826  0.6944358456986373  1.0000
  C   C19       1.0  0.1487641073140414  0.9987623525595223  0.32899020895754905  1.0000
  C   C20       1.0  0.8512358931436877  0.49876235313191614  0.6710097910607757  1.0000
  C   C21       1.0  0.16020916025787008  0.8978553715626124  0.1905577667318107  1.0000
  C   C22       1.0  0.8397908401956601  0.3978553712710823  0.8094422339476075  1.0000
  C   C23       1.0  0.05466160345874373  0.981632226393183  0.12690082037101588  1.0000
  C   C24       1.0  0.9453383969989855  0.481632226101653  0.8730991796473089  1.0000
  C   C25       1.0  0.2411432559251001  0.8325473156030581  0.1313811531759081  1.0000
  C   C26       1.0  0.758856744532629  0.33254731617545197  0.8686188468424166  1.0000
  C   C27       1.0  0.7102633160397416  0.7459299175271938  0.37452202838389725  1.0000
  C   C28       1.0  0.28973668441798756  0.24592991723566374  0.6254779716344274  1.0000
  C   C29       1.0  0.7162721180880305  0.7256635372964213  0.28413546902377024  1.0000
  C   C30       1.0  0.28372788236969854  0.22566353700489117  0.7158645309945544  1.0000
  C   C31       1.0  0.8155649618014347  0.6469436270604682  0.26695224899496184  1.0000
  C   C32       1.0  0.18443503756446863  0.14694362676893807  0.7330477508304407  1.0000
  C   C33       1.0  0.9096319210594721  0.5898442607812627  0.34150036270020273  1.0000
  C   C34       1.0  0.09036807830643123  0.08984426048973257  0.6584996371251998  1.0000
  C   C35       1.0  0.9096543449755385  0.6117327965555138  0.43240069498555733  1.0000
  C   C36       1.0  0.09034565548219053  0.11173279626398362  0.5675993050327672  1.0000
  C   C37       1.0  0.8092175170572193  0.690571280360879  0.4484045508481253  1.0000
  C   C38       1.0  0.190782482308684  0.19057128006934887  0.5515954489772773  1.0000
  C   C39       1.0  0.5357522047161333  0.047551793960646814  0.514885325668037  1.0000
  C   C40       1.0  0.4642477957415959  0.5475517942521769  0.4851146743502877  1.0000
  C   C41       1.0  0.6058876175012667  0.9768200193736801  0.5920388199572248  1.0000
  C   C42       1.0  0.39411238295646234  0.4768200190821501  0.4079611800610998  1.0000
  C   C43       1.0  0.6317352233152698  0.9486846944881318  0.8257665067479271  1.0000
  C   C44       1.0  0.3682647771382606  0.4486846950605256  0.17423349393149112  1.0000
  C   C45       1.0  0.7028167704357029  0.8847526068324642  0.9071723738597571  1.0000
  C   C46       1.0  0.2971832300220261  0.384752606540934  0.09282762615856753  1.0000
  C   C47       1.0  0.679018515100327  0.9116913710561335  0.9917676001899474  1.0000
  C   C48       1.0  0.3209814842613776  0.4116913707646033  0.008232400296548729  1.0000
  C   C49       1.0  0.5883523756982758  0.003139808247781761  0.9979808719074673  1.0000
  C   C50       1.0  0.4116476236676275  0.5031398076753879  0.0020191279179353257  1.0000
  C   C51       1.0  0.520576009476171  0.07020630462621236  0.9199220118301187  1.0000
  C   C52       1.0  0.4794239909815582  0.5702063049177425  0.08007798818820602  1.0000
  C   C53       1.0  0.5420437554221216  0.04309746745938788  0.8364715741395164  1.0000
  C   C54       1.0  0.45795624394378165  0.543097466886994  0.1635284256858861  1.0000
  C   C55       1.0  0.8074222140546787  0.25673850499419365  0.3600494828579092  1.0000
  C   C56       1.0  0.19257778640305037  0.7567385052857238  0.6399505171604155  1.0000
  C   C57       1.0  0.7619044447161515  0.33019126755851047  0.4293229983429306  1.0000
  C   C58       1.0  0.23809555574157767  0.8301912669861167  0.5706770016753941  1.0000
  C   C59       1.0  0.8290337977819073  0.24582425328262844  0.20734784563509198  1.0000
  C   C60       1.0  0.1709662026758218  0.7458242535741586  0.7926521543832328  1.0000
  C   C61       1.0  0.7718023682426037  0.3079549004300184  0.11672661905813278  1.0000
  C   C62       1.0  0.2281976322151253  0.8079549007215486  0.8832733809601919  1.0000
  N   N1        1.0  0.009027594501866337  0.5034126391951562  0.32320531353502974  1.0000
  N   N2        1.0  0.9909724059558629  0.003412639767550105  0.676794686483295  1.0000
  N   N3        1.0  0.5745337902740006  0.9937228566379933  0.6696701230911715  1.0000
  N   N4        1.0  0.4254662090919027  0.4937228563464632  0.3303298767342311  1.0000
  N   N5        1.0  0.6460167023545265  0.9259742836199518  0.7408303949299787  1.0000
  N   N6        1.0  0.3539832970113768  0.4259742833284218  0.25916960489542384  1.0000
  N   N7        1.0  0.8049260678974347  0.7928192182775299  0.9070389086498567  1.0000
  N   N8        1.0  0.1950739325602944  0.29281921798599975  0.09296109136846797  1.0000
  N   N9        1.0  0.5660292097519701  0.03182986132743044  0.08575143752594819  1.0000
  N   N10       1.0  0.43397079070575895  0.5318298607550366  0.9142485624923765  1.0000
  O   O1        1.0  0.36605738721777265  0.21076855674696923  0.3832924323918154  1.0000
  O   O2        1.0  0.6339426121481306  0.7107685570384993  0.6167075674335872  1.0000
  O   O3        1.0  0.46750760130755714  0.8116465516572604  0.31876386107630783  1.0000
  O   O4        1.0  0.5324923991459732  0.31164655222965426  0.6812361396031104  1.0000
  O   O5        1.0  0.02897642207476857  0.5008310580336869  0.24533991693501206  1.0000
  O   O6        1.0  0.9710235772911346  0.0008310586060807035  0.7546600828903905  1.0000
  O   O7        1.0  0.06861739895468769  0.43546040214087484  0.38650601099133863  1.0000
  O   O8        1.0  0.9313826015030414  0.935460402432405  0.613493989026986  1.0000
  O   O9        1.0  0.8286723043455991  0.7670021945774597  0.8316980938554415  1.0000
  O   O10       1.0  0.17132769502030415  0.26700219428592953  0.16830190596996106  1.0000
  O   O11       1.0  0.8661514040263822  0.7431322447827015  0.9806207753105863  1.0000
  O   O12       1.0  0.1338485964313469  0.24313224449117118  0.019379224707738327  1.0000
  O   O13       1.0  0.6254396911270511  0.9700849646057577  0.1539382811250889  1.0000
  O   O14       1.0  0.3745603082388521  0.47008496517815146  0.8460617187003137  1.0000
  O   O15       1.0  0.48891546831140237  0.117762655785975  0.08997183302186006  1.0000
  O   O16       1.0  0.511084532142128  0.6177626560775051  0.9100281676575582  1.0000
  O   O17       1.0  0.8626236081400439  0.16063130951747154  0.37573989513604583  1.0000
  O   O18       1.0  0.1373763912258594  0.6606313098090016  0.6242601046893569  1.0000
  O   O19       1.0  0.7814928055925402  0.30952675918196604  0.27726442111218264  1.0000
  O   O20       1.0  0.21850719377336314  0.8095267594734962  0.7227355787132199  1.0000
  S   S1        1.0  0.46847816677693366  0.13964051605132097  0.34546383612346243  1.0000
  S   S2        1.0  0.5315218325889696  0.6396405163428511  0.6545361637019401  1.0000
