data_image0
_chemical_formula_structural       H20C36N4O8F8
_chemical_formula_sum              "H20 C36 N4 O8 F8"
_cell_length_a       8.035844094188034
_cell_length_b       10.051462276597578
_cell_length_c       10.53604106554845
_cell_angle_alpha    88.14296804943932
_cell_angle_beta     74.4331810129053
_cell_angle_gamma    70.96650161188148

_space_group_name_H-M_alt    "P 1"
_space_group_IT_number       1

loop_
  _space_group_symop_operation_xyz
  'x, y, z'

loop_
  _atom_site_type_symbol
  _atom_site_label
  _atom_site_symmetry_multiplicity
  _atom_site_fract_x
  _atom_site_fract_y
  _atom_site_fract_z
  _atom_site_occupancy
  H   H1        1.0  0.05880925927624804  0.9044549420966947  0.29639487854534274  1.0000
  H   H2        1.0  0.941190741374687  0.09554505835755225  0.7036051217332557  1.0000
  H   H3        1.0  0.022875651779909936  0.4654893349604803  0.19581004416661632  1.0000
  H   H4        1.0  0.9771243480425041  0.5345106644239321  0.8041899553755371  1.0000
  H   H5        1.0  0.40179451045053055  0.017519872067655217  0.36417898251367214  1.0000
  H   H6        1.0  0.5982054893797212  0.9824801273202787  0.6358210179758612  1.0000
  H   H7        1.0  0.6455299687907778  0.6102697945660494  0.5702873970144228  1.0000
  H   H8        1.0  0.3544700310316363  0.38973020481836307  0.42971260252773075  1.0000
  H   H9        1.0  0.5610621243730638  0.8324306523434458  0.22078834834418262  1.0000
  H   H10       1.0  0.4389378754571878  0.16756934704448803  0.7792116521453508  1.0000
  H   H11       1.0  0.9312684708499859  0.44174419752782157  0.425580918008415  1.0000
  H   H12       1.0  0.06873152850656972  0.5582558029108667  0.574419081593406  1.0000
  H   H13       1.0  0.10729679280301721  0.17294127297296735  0.5073035354230008  1.0000
  H   H14       1.0  0.8927032070272346  0.8270587264149665  0.49269646506653275  1.0000
  H   H15       1.0  0.3440941251970097  0.683659078794869  0.6257354056794979  1.0000
  H   H16       1.0  0.6559058746254043  0.31634092058954355  0.3742645938626556  1.0000
  H   H17       1.0  0.8550092246130939  0.6573831089917981  0.09125075600208114  1.0000
  H   H18       1.0  0.14499077474346161  0.3426168914468904  0.9087492435997399  1.0000
  H   H19       1.0  0.05387310903765151  0.8570428005012647  0.7618990967903636  1.0000
  H   H20       1.0  0.9461268907926003  0.14295719888666908  0.23810090369916972  1.0000
  C   C1        1.0  0.3407151758710413  0.6005630933322774  0.9894320628582417  1.0000
  C   C2        1.0  0.6592848247798938  0.3994369071219695  0.010567937420356645  1.0000
  C   C3        1.0  0.375497669783582  0.5886796265602411  0.11290260212103716  1.0000
  C   C4        1.0  0.6245023300466696  0.4113203728276928  0.8870973983684963  1.0000
  C   C5        1.0  0.46371225121571225  0.5156481350464743  0.880102557265497  1.0000
  C   C6        1.0  0.5362877494352227  0.48435186540777275  0.11989744301310115  1.0000
  C   C7        1.0  0.24785963142764406  0.6869107943296514  0.23124588723532782  1.0000
  C   C8        1.0  0.7521403696813119  0.31308920506679827  0.7687541120362232  1.0000
  C   C9        1.0  0.3737657247421369  0.11969751882624324  0.08357262509079459  1.0000
  C   C10       1.0  0.6262342759087982  0.8803024816280036  0.9164273751878037  1.0000
  C   C11       1.0  0.24084559574093742  0.24901580302237816  0.17054337031409994  1.0000
  C   C12       1.0  0.7591544049099976  0.7509841974318687  0.8294566299644984  1.0000
  C   C13       1.0  0.5584985804607726  0.06975803118846552  0.07944468746941606  1.0000
  C   C14       1.0  0.44150142019016236  0.9302419692657816  0.9205553128091823  1.0000
  C   C15       1.0  0.31788560954085593  0.04582954289721237  0.002664291169192326  1.0000
  C   C16       1.0  0.6821143915759376  0.9541704565027587  0.9973357090497386  1.0000
  C   C17       1.0  0.33159280186344287  0.9748722371078068  0.4502324012775511  1.0000
  C   C18       1.0  0.6684071979668089  0.02512776228012713  0.5497675992119824  1.0000
  C   C19       1.0  0.4010541720016034  0.8353372213342833  0.4843980630409821  1.0000
  C   C20       1.0  0.5989458291151901  0.16466277806568766  0.5156019371779489  1.0000
  C   C21       1.0  0.577396428266626  0.7366663476850469  0.40644023488985914  1.0000
  C   C22       1.0  0.4226035715557882  0.2633336516993656  0.5935597646522943  1.0000
  C   C23       1.0  0.683646193321808  0.6252701215110897  0.46508558462990196  1.0000
  C   C24       1.0  0.3163538060425851  0.37472987893112  0.5349144159192989  1.0000
  C   C25       1.0  0.6416884841636193  0.7507554167371648  0.27091430338351524  1.0000
  C   C26       1.0  0.35831151520077387  0.24924458370504485  0.7290856971656857  1.0000
  C   C27       1.0  0.8445707270639514  0.5317642723785829  0.38716159509164483  1.0000
  C   C28       1.0  0.15542927275846263  0.46823572700582955  0.6128384044505087  1.0000
  C   C29       1.0  0.16779905214690444  0.06412405722310373  0.5292809612852613  1.0000
  C   C30       1.0  0.8322009489698892  0.9358759421768674  0.4707190389336696  1.0000
  C   C31       1.0  0.29784391834526164  0.7909135310677792  0.596478203996166  1.0000
  C   C32       1.0  0.7021560822978358  0.20908646938294648  0.4035217953350524  1.0000
  C   C33       1.0  0.8040965798183185  0.6542603861636399  0.19790672018662472  1.0000
  C   C34       1.0  0.19590341953823712  0.3457396142750484  0.8020932794151961  1.0000
  C   C35       1.0  0.13614738466696383  0.885176676432851  0.6722064064184953  1.0000
  C   C36       1.0  0.8638526151554503  0.11482332295156142  0.32779359312365824  1.0000
  N   N1        1.0  0.07519847049085507  0.018590629011706116  0.6380014434005135  1.0000
  N   N2        1.0  0.9248015306259386  0.9814093703882649  0.3619985568184174  1.0000
  N   N3        1.0  0.8998253558255825  0.5476913188145697  0.2571023626564673  1.0000
  N   N4        1.0  0.10017464529121103  0.45230868058540136  0.7428976375624636  1.0000
  O   O1        1.0  0.21282826685042774  0.8182453126476174  0.2073071728872918  1.0000
  O   O2        1.0  0.7871717342585284  0.18175468674883227  0.7926928263842592  1.0000
  O   O3        1.0  0.18936561587208692  0.6366875629169848  0.33703384106646556  1.0000
  O   O4        1.0  0.8106343834844687  0.36331243752170345  0.6629661585353553  1.0000
  O   O5        1.0  0.1665439937369941  0.3515292584868395  0.10671365949892714  1.0000
  O   O6        1.0  0.8334560073797994  0.6484707409131315  0.8932863407200037  1.0000
  O   O7        1.0  0.214164792235618  0.24467545230226745  0.2928347141658354  1.0000
  O   O8        1.0  0.785835208873338  0.7553245470941822  0.7071652851057156  1.0000
  F   F1        1.0  0.18172026946011585  0.6920757316638537  0.9746543218510549  1.0000
  F   F2        1.0  0.8182797299042773  0.307924268778356  0.02534567869814589  1.0000
  F   F3        1.0  0.42077320574631083  0.534101016133388  0.7625639199815536  1.0000
  F   F4        1.0  0.5792267936102448  0.46589898430530036  0.23743607962026736  1.0000
  F   F5        1.0  0.13915333511387637  0.08540667260958662  0.003683542365104462  1.0000
  F   F6        1.0  0.8608466660029171  0.9145933267903845  0.9963164578538265  1.0000
  F   F7        1.0  0.6214636384666976  0.1354601037662092  0.15750707576719034  1.0000
  F   F8        1.0  0.3785363608898578  0.8645398966724792  0.8424929238346306  1.0000
