data_image0
_chemical_formula_structural       H24C30N4O8F8
_chemical_formula_sum              "H24 C30 N4 O8 F8"
_cell_length_a       8.747844754889798
_cell_length_b       9.870000454127435
_cell_length_c       10.219336608624038
_cell_angle_alpha    98.52301417499858
_cell_angle_beta     107.67133303531041
_cell_angle_gamma    111.84277734630643

_space_group_name_H-M_alt    "P 1"
_space_group_IT_number       1

loop_
  _space_group_symop_operation_xyz
  'x, y, z'

loop_
  _atom_site_type_symbol
  _atom_site_label
  _atom_site_symmetry_multiplicity
  _atom_site_fract_x
  _atom_site_fract_y
  _atom_site_fract_z
  _atom_site_occupancy
  H   H1        1.0  0.1861373637632073  0.7183037279318525  0.6901088244394387  1.0000
  H   H2        1.0  0.8138626358329241  0.28169627221966653  0.30989117570071895  1.0000
  H   H3        1.0  0.9605961488939625  0.5130896300376586  0.2080808634233331  1.0000
  H   H4        1.0  0.03940385190900528  0.48691037013324073  0.7919191360523872  1.0000
  H   H5        1.0  0.8691538091496632  0.8207154530026528  0.4708026624830255  1.0000
  H   H6        1.0  0.13084619165193082  0.1792845471600033  0.5291973379696667  1.0000
  H   H7        1.0  0.7993814686290862  0.5432308923267507  0.9981459464186173  1.0000
  H   H8        1.0  0.20061853217250786  0.4567691078359054  0.0018540540340746955  1.0000
  H   H9        1.0  0.6400404288503108  0.7042641854883045  0.0017815644905526853  1.0000
  H   H10       1.0  0.3599595719512835  0.2957358146743518  0.9982184359621394  1.0000
  H   H11       1.0  0.5858217868083533  0.009685078769136494  0.36417673863760036  1.0000
  H   H12       1.0  0.4141782122087145  0.9903149202482333  0.6358232602041551  1.0000
  H   H13       1.0  0.8070057505395686  0.03013584628351694  0.4475047067221555  1.0000
  H   H14       1.0  0.1929942490565625  0.9698641538680021  0.5524952934180021  1.0000
  H   H15       1.0  0.6212666523834137  0.8710573224184338  0.4462338708361352  1.0000
  H   H16       1.0  0.37873334721271756  0.1289426777330851  0.5537661293040224  1.0000
  H   H17       1.0  0.014603699230472698  0.6521640879172722  0.4423519997230996  1.0000
  H   H18       1.0  0.9853963009906845  0.34783591110299156  0.5576480004081623  1.0000
  H   H19       1.0  0.4831993310572483  0.9552607690767261  0.14249698566500602  1.0000
  H   H20       1.0  0.5168006697443458  0.04473923108593024  0.8575030147876861  1.0000
  H   H21       1.0  0.41931253565641013  0.7624363692061561  0.04869558286865572  1.0000
  H   H22       1.0  0.580687465145184  0.23756363095650002  0.9513044175840365  1.0000
  H   H23       1.0  0.6095743605756876  0.9153965407041906  0.04870350666636205  1.0000
  H   H24       1.0  0.390425639021817  0.08460345945557145  0.9512964924968237  1.0000
  C   C1        1.0  0.44881259914414895  0.5883787970557891  0.5853100318747686  1.0000
  C   C2        1.0  0.5511873998715452  0.4116212019533374  0.4146899679439588  1.0000
  C   C3        1.0  0.5444789998273103  0.511094485694422  0.6438576512401158  1.0000
  C   C4        1.0  0.45552100097428394  0.48890551446823416  0.35614234921257626  1.0000
  C   C5        1.0  0.3987859070790209  0.6845352818570716  0.6775555810187512  1.0000
  C   C6        1.0  0.6012140925184838  0.3154647183026905  0.3224444181444345  1.0000
  C   C7        1.0  0.40517411268339304  0.575340922280071  0.43932823073810445  1.0000
  C   C8        1.0  0.594825888118201  0.424659077882585  0.5606717697145878  1.0000
  C   C9        1.0  0.7341175055493863  0.7763808328311226  0.23772496516970903  1.0000
  C   C10       1.0  0.2658824940467448  0.22361916732039636  0.7622750349704487  1.0000
  C   C11       1.0  0.8471422093588112  0.76150807959083  0.3633021402564136  1.0000
  C   C12       1.0  0.1528577914427829  0.2384919205718261  0.6366978601962785  1.0000
  C   C13       1.0  0.8044890493451501  0.6048501802630841  0.09798351058964687  1.0000
  C   C14       1.0  0.1955109496705442  0.39514981874604244  0.9020164892290806  1.0000
  C   C15       1.0  0.7180557162225634  0.6951556620004077  0.1025080183256639  1.0000
  C   C16       1.0  0.28194428337356786  0.30484433815111117  0.8974919818144937  1.0000
  C   C17       1.0  0.6668040860995977  0.9473402141560578  0.38368415502708353  1.0000
  C   C18       1.0  0.33319591349653344  0.05265978599546106  0.6163158451130741  1.0000
  C   C19       1.0  0.9294954293249293  0.66889217646311  0.3502880263408485  1.0000
  C   C20       1.0  0.07050457147666478  0.33110782369954606  0.6497119741118437  1.0000
  C   C21       1.0  0.533173688396725  0.8739590762954822  0.11369656600261445  1.0000
  C   C22       1.0  0.46682631240486916  0.12604092386717397  0.8863034344500778  1.0000
  C   C23       1.0  0.9764198207265001  0.1177399318215228  0.07774429217144217  1.0000
  C   C24       1.0  0.02358018007509392  0.8822600683411332  0.9222557082812501  1.0000
  C   C25       1.0  0.9115455150355095  0.07354084651329328  0.927953209552166  1.0000
  C   C26       1.0  0.08845448576608468  0.926459153649363  0.07204679090052617  1.0000
  C   C27       1.0  0.947706803744549  0.2397351517620416  0.16134428113163243  1.0000
  C   C28       1.0  0.0522931958515821  0.7602648483894773  0.8386557190085252  1.0000
  C   C29       1.0  0.06593104193082253  0.041818297278653827  0.14765689387097383  1.0000
  C   C30       1.0  0.9340689588707716  0.9581817028840023  0.8523431065817184  1.0000
  N   N1        1.0  0.9070335595447495  0.5913058626139432  0.2197645058653061  1.0000
  N   N2        1.0  0.09296644125684453  0.4086941375487128  0.7802354945873861  1.0000
  N   N3        1.0  0.646209064845332  0.8618314625254069  0.24526326705796284  1.0000
  N   N4        1.0  0.35379093595626215  0.1381685376372493  0.7547367333947294  1.0000
  O   O1        1.0  0.22790740196429202  0.6492921497918847  0.6234366751165595  1.0000
  O   O2        1.0  0.7720925988386758  0.35070785037901464  0.3765633243591607  1.0000
  O   O3        1.0  0.5130014645303924  0.783535249087477  0.7901175841693562  1.0000
  O   O4        1.0  0.48699853627120177  0.21646475107517923  0.20988241628333598  1.0000
  O   O5        1.0  0.8712973791207902  0.19538944734391953  0.24624267553878648  1.0000
  O   O6        1.0  0.12870262047534092  0.8046105528075994  0.7537573246013711  1.0000
  O   O7        1.0  0.9987422941624763  0.3684012300173962  0.14081282177200832  1.0000
  O   O8        1.0  0.0012577054336549724  0.6315987701341227  0.8591871783681493  1.0000
  F   F1        1.0  0.3178636704925681  0.6517795826569432  0.37705949580096954  1.0000
  F   F2        1.0  0.6821363303090261  0.34822041750571286  0.6229405046517226  1.0000
  F   F3        1.0  0.583102582624782  0.5135739815126709  0.7828345889349863  1.0000
  F   F4        1.0  0.41689741817681214  0.4864260186499852  0.21716541151770596  1.0000
  F   F5        1.0  0.13609276737001005  0.08145650982209748  0.2934726807553369  1.0000
  F   F6        1.0  0.8639072322274947  0.9185434903376646  0.7065273184078488  1.0000
  F   F7        1.0  0.8223002886035959  0.14152016284681754  0.8522228571703876  1.0000
  F   F8        1.0  0.17769971099390872  0.8584798373129445  0.14777714199279812  1.0000
