data_image0
_chemical_formula_structural       H48C20N12O2I12
_chemical_formula_sum              "H48 C20 N12 O2 I12"
_cell_length_a       12.864414694181836
_cell_length_b       10.785590774568472
_cell_length_c       8.416080491253448
_cell_angle_alpha    90.0
_cell_angle_beta     90.0
_cell_angle_gamma    90.0

_space_group_name_H-M_alt    "P 1"
_space_group_IT_number       1

loop_
  _space_group_symop_operation_xyz
  'x, y, z'

loop_
  _atom_site_type_symbol
  _atom_site_label
  _atom_site_symmetry_multiplicity
  _atom_site_fract_x
  _atom_site_fract_y
  _atom_site_fract_z
  _atom_site_occupancy
  H   H1        1.0  0.500000000226134  0.42563795863872594  0.6554723990262596  1.0000
  H   H2        1.0  0.500000000226134  0.5743620418648651  0.6554723990262596  1.0000
  H   H3        1.0  0.500000000226134  0.9256379579633586  0.15547239969482793  1.0000
  H   H4        1.0  0.500000000226134  0.07436204161306957  0.15547239969482793  1.0000
  H   H5        1.0  0.6113045658856652  0.5000009997334396  0.47583081508807795  1.0000
  H   H6        1.0  0.3886954337892647  0.49999899984298846  0.47583081508807795  1.0000
  H   H7        1.0  0.6113045658856652  1.0004088070392884e-06  0.9758308144195098  1.0000
  H   H8        1.0  0.3886954337892647  0.999999000094784  0.9758308144195098  1.0000
  H   H9        1.0  0.6386251232802395  0.5000009997334396  0.28195640149427587  1.0000
  H   H10       1.0  0.36137487639469035  0.49999899984298846  0.28195640149427587  1.0000
  H   H11       1.0  0.6386251232802395  1.0004088070392884e-06  0.7819564020139093  1.0000
  H   H12       1.0  0.36137487639469035  0.999999000094784  0.7819564020139093  1.0000
  H   H13       1.0  0.6842257871227471  0.6949472807436353  0.41426618170101875  1.0000
  H   H14       1.0  0.31577421255218285  0.3050527197599557  0.41426618170101875  1.0000
  H   H15       1.0  0.6842257871227471  0.3050527197599557  0.41426618170101875  1.0000
  H   H16       1.0  0.31577421255218285  0.6949472807436353  0.41426618170101875  1.0000
  H   H17       1.0  0.6842257871227471  0.19494728049183982  0.9142661822206521  1.0000
  H   H18       1.0  0.31577421255218285  0.8050527200117512  0.9142661822206521  1.0000
  H   H19       1.0  0.6842257871227471  0.8050527200117512  0.9142661822206521  1.0000
  H   H20       1.0  0.31577421255218285  0.19494728049183982  0.9142661822206521  1.0000
  H   H21       1.0  0.7827381726549983  0.6230741116050617  0.29757021485271123  1.0000
  H   H22       1.0  0.21726182701993155  0.3769258888985294  0.29757021485271123  1.0000
  H   H23       1.0  0.7827381726549983  0.3769258888985294  0.29757021485271123  1.0000
  H   H24       1.0  0.21726182701993155  0.6230741116050617  0.29757021485271123  1.0000
  H   H25       1.0  0.7827381726549983  0.12307411135326611  0.797570214184143  1.0000
  H   H26       1.0  0.21726182701993155  0.8769258882231621  0.797570214184143  1.0000
  H   H27       1.0  0.7827381726549983  0.8769258882231621  0.797570214184143  1.0000
  H   H28       1.0  0.21726182701993155  0.12307411135326611  0.797570214184143  1.0000
  H   H29       1.0  0.9153460448787951  0.5000000002517955  0.4439113496933274  1.0000
  H   H30       1.0  0.08465395557347281  0.5000000002517955  0.4439113496933274  1.0000
  H   H31       1.0  0.9153460448787951  0.0  0.9439113502129607  1.0000
  H   H32       1.0  0.08465395557347281  0.0  0.9439113502129607  1.0000
  H   H33       1.0  0.8574796959078874  0.6947774875409933  0.5512147198237027  1.0000
  H   H34       1.0  0.14252030454438058  0.30522251203543477  0.5512147198237027  1.0000
  H   H35       1.0  0.8574796959078874  0.30522251203543477  0.5512147198237027  1.0000
  H   H36       1.0  0.14252030454438058  0.6947774875409933  0.5512147198237027  1.0000
  H   H37       1.0  0.8574796959078874  0.19477748728919783  0.05121471930406942  1.0000
  H   H38       1.0  0.14252030454438058  0.8052225122872303  0.05121471930406942  1.0000
  H   H39       1.0  0.8574796959078874  0.8052225122872303  0.05121471930406942  1.0000
  H   H40       1.0  0.14252030454438058  0.19477748728919783  0.05121471930406942  1.0000
  H   H41       1.0  0.7638274514303456  0.6113081766041505  0.6649776479462455  1.0000
  H   H42       1.0  0.2361725490219225  0.3886918238994406  0.6649776479462455  1.0000
  H   H43       1.0  0.7638274514303456  0.3886918238994406  0.6649776479462455  1.0000
  H   H44       1.0  0.2361725490219225  0.6113081766041505  0.6649776479462455  1.0000
  H   H45       1.0  0.7638274514303456  0.11130817635235492  0.16497764742661214  1.0000
  H   H46       1.0  0.2361725490219225  0.8886918232240731  0.16497764742661214  1.0000
  H   H47       1.0  0.7638274514303456  0.8886918232240731  0.16497764742661214  1.0000
  H   H48       1.0  0.2361725490219225  0.11130817635235492  0.16497764742661214  1.0000
  C   C1        1.0  0.7372063662009579  0.6152910543989664  0.4075730268460311  1.0000
  C   C2        1.0  0.2627936334739719  0.38470894517746174  0.4075730268460311  1.0000
  C   C3        1.0  0.7372063662009579  0.38470894517746174  0.4075730268460311  1.0000
  C   C4        1.0  0.2627936334739719  0.6152910543989664  0.4075730268460311  1.0000
  C   C5        1.0  0.7372063662009579  0.11529105507433376  0.9075730261774628  1.0000
  C   C6        1.0  0.2627936334739719  0.8847089454292573  0.9075730261774628  1.0000
  C   C7        1.0  0.7372063662009579  0.8847089454292573  0.9075730261774628  1.0000
  C   C8        1.0  0.2627936334739719  0.11529105507433376  0.9075730261774628  1.0000
  C   C9        1.0  0.9499181836486335  0.5000000002517955  0.6879234301545664  1.0000
  C   C10       1.0  0.05008181680363461  0.5000000002517955  0.6879234301545664  1.0000
  C   C11       1.0  0.9499181836486335  0.0  0.1879234308231346  1.0000
  C   C12       1.0  0.05008181680363461  0.0  0.1879234308231346  1.0000
  C   C13       1.0  0.8067752678008702  0.6131340914206513  0.5521821903711223  1.0000
  C   C14       1.0  0.1932247326513979  0.38686590908293966  0.5521821903711223  1.0000
  C   C15       1.0  0.8067752678008702  0.38686590908293966  0.5521821903711223  1.0000
  C   C16       1.0  0.1932247326513979  0.6131340914206513  0.5521821903711223  1.0000
  C   C17       1.0  0.8067752678008702  0.11313409116885582  0.05218218985148897  1.0000
  C   C18       1.0  0.1932247326513979  0.8868659084075723  0.05218218985148897  1.0000
  C   C19       1.0  0.8067752678008702  0.8868659084075723  0.05218218985148897  1.0000
  C   C20       1.0  0.1932247326513979  0.11313409116885582  0.05218218985148897  1.0000
  N   N1        1.0  0.500000000226134  0.5000000002517955  0.06088932140472891  1.0000
  N   N2        1.0  0.500000000226134  0.0  0.5608893219243622  1.0000
  N   N3        1.0  0.6734357268440793  0.5000000002517955  0.3936190633446068  1.0000
  N   N4        1.0  0.32656427283085054  0.5000000002517955  0.3936190633446068  1.0000
  N   N5        1.0  0.6734357268440793  0.0  0.8936190638642401  1.0000
  N   N6        1.0  0.32656427283085054  0.0  0.8936190638642401  1.0000
  N   N7        1.0  0.8751525046135041  0.5000000002517955  0.5523981246176981  1.0000
  N   N8        1.0  0.1248474958387639  0.5000000002517955  0.5523981246176981  1.0000
  N   N9        1.0  0.8751525046135041  0.0  0.05239812528626632  1.0000
  N   N10       1.0  0.1248474958387639  0.0  0.05239812528626632  1.0000
  N   N11       1.0  0.0  0.5000000002517955  0.07847889058171671  1.0000
  N   N12       1.0  0.0  0.0  0.57847889110135  1.0000
  O   O1        1.0  0.500000000226134  0.5000000002517955  0.5860383649046388  1.0000
  O   O2        1.0  0.500000000226134  0.0  0.08603836438500548  1.0000
  I   I1        1.0  0.0  0.34056721293942877  0.22060734114051708  1.0000
  I   I2        1.0  0.0  0.6594327875641622  0.22060734114051708  1.0000
  I   I3        1.0  0.0  0.8405672131912243  0.7206073416601504  1.0000
  I   I4        1.0  0.0  0.1594327873123667  0.7206073416601504  1.0000
  I   I5        1.0  0.6799366351238648  0.5000000002517955  0.9538262209282208  1.0000
  I   I6        1.0  0.32006336455106515  0.5000000002517955  0.9538262209282208  1.0000
  I   I7        1.0  0.6799366351238648  0.0  0.4538262204085874  1.0000
  I   I8        1.0  0.32006336455106515  0.0  0.4538262204085874  1.0000
  I   I9        1.0  0.500000000226134  0.7988376112243809  0.68426310394547  1.0000
  I   I10       1.0  0.500000000226134  0.20116238927921007  0.68426310394547  1.0000
  I   I11       1.0  0.500000000226134  0.2988376109725855  0.18426310461403816  1.0000
  I   I12       1.0  0.500000000226134  0.7011623895310056  0.18426310461403816  1.0000
