data_image0
_chemical_formula_structural       H112B4C164N12
_chemical_formula_sum              "H112 B4 C164 N12"
_cell_length_a       12.526732345096278
_cell_length_b       15.504358202283568
_cell_length_c       17.31328752285293
_cell_angle_alpha    85.95483181942353
_cell_angle_beta     69.50060642885695
_cell_angle_gamma    67.55605775234761

_space_group_name_H-M_alt    "P 1"
_space_group_IT_number       1

loop_
  _space_group_symop_operation_xyz
  'x, y, z'

loop_
  _atom_site_type_symbol
  _atom_site_label
  _atom_site_symmetry_multiplicity
  _atom_site_fract_x
  _atom_site_fract_y
  _atom_site_fract_z
  _atom_site_occupancy
  H   H1        1.0  0.999528554508248  0.4999362680600678  0.33295922532931566  1.0000
  H   H2        1.0  0.0004714461839211127  0.5000637316395729  0.6670407747141196  1.0000
  H   H3        1.0  0.19253896070429058  0.39851111824853763  0.3746991886578006  1.0000
  H   H4        1.0  0.8074610391907522  0.60148888145076  0.625300811383569  1.0000
  H   H5        1.0  0.17782106328958655  0.06574712536551774  0.5565692967107251  1.0000
  H   H6        1.0  0.8221789377290895  0.9342528742820956  0.4434307027144276  1.0000
  H   H7        1.0  0.9741379749413329  0.027755539390029033  0.6077370888895441  1.0000
  H   H8        1.0  0.025862025750836282  0.9722444603096114  0.39226291115389117  1.0000
  H   H9        1.0  0.5293166506929728  0.27790974595941725  0.544482964882164  1.0000
  H   H10       1.0  0.4706833488725836  0.7220902544376464  0.4555170351583335  1.0000
  H   H11       1.0  0.5416863822516979  0.41898265857879347  0.4496377515121481  1.0000
  H   H12       1.0  0.45831361844047147  0.5810173411208471  0.5503622485312871  1.0000
  H   H13       1.0  0.30658787061762843  0.2606001645059096  0.3605796268948338  1.0000
  H   H14       1.0  0.6934121297450545  0.739399835891497  0.6394203731477293  1.0000
  H   H15       1.0  0.5288214112646967  0.19032491834861498  0.33202375794508926  1.0000
  H   H16       1.0  0.47117858863034595  0.8096750813506827  0.6679762420962804  1.0000
  H   H17       1.0  0.6117389878753737  0.10680393476826539  0.44033360500924645  1.0000
  H   H18       1.0  0.3882610128167953  0.8931960649313753  0.5596663950341888  1.0000
  H   H19       1.0  0.46517212856625795  0.10169547719530458  0.5800205512642235  1.0000
  H   H20       1.0  0.5348278709992985  0.8983045232017591  0.41997944877627397  1.0000
  H   H21       1.0  0.2403306666951503  0.17796045151908466  0.6111053724721548  1.0000
  H   H22       1.0  0.7596693335263993  0.8220395481281857  0.38889462695093235  1.0000
  H   H23       1.0  0.8365699173748676  0.016664259978965493  0.5524468281872689  1.0000
  H   H24       1.0  0.1634300821906886  0.9833357404180983  0.4475531718532286  1.0000
  H   H25       1.0  0.7257488813498998  0.9099997442094798  0.6050009407133525  1.0000
  H   H26       1.0  0.2742511182156568  0.09000025618758391  0.3949990593271449  1.0000
  H   H27       1.0  0.5179257129684575  0.96801540656296  0.7140424024954614  1.0000
  H   H28       1.0  0.4820742865970991  0.031984593834103694  0.285957597545036  1.0000
  H   H29       1.0  0.4201384364689394  0.13497332192046396  0.7700013169113687  1.0000
  H   H30       1.0  0.5798615634261034  0.8650266777788336  0.2299986831300008  1.0000
  H   H31       1.0  0.530135983704056  0.24196115721754297  0.7155264615886674  1.0000
  H   H32       1.0  0.46986401619098683  0.7580388424817547  0.2844735384527022  1.0000
  H   H33       1.0  0.6867562554258787  0.4162792907966711  0.32561323165852224  1.0000
  H   H34       1.0  0.31324374493680446  0.5837207096007356  0.6743867683840408  1.0000
  H   H35       1.0  0.6335975449684799  0.5121046466556267  0.213801818711402  1.0000
  H   H36       1.0  0.36640245539420313  0.48789535374177995  0.786198181331161  1.0000
  H   H37       1.0  0.6614365488420181  0.6632315724240313  0.19203539425625604  1.0000
  H   H38       1.0  0.3385634515206649  0.3367684279733753  0.807964605786307  1.0000
  H   H39       1.0  0.7336778228238316  0.7216487297230499  0.28685083460765853  1.0000
  H   H40       1.0  0.2663221770712109  0.2783512699762477  0.7131491654337111  1.0000
  H   H41       1.0  0.7806097810613335  0.6277715996328713  0.4017044065201473  1.0000
  H   H42       1.0  0.21939021883370913  0.37222840006642643  0.5982955935212224  1.0000
  H   H43       1.0  0.8558342159460709  0.4257603306491024  0.6758324127933099  1.0000
  H   H44       1.0  0.14416578474609817  0.5742396690505381  0.32416758725012546  1.0000
  H   H45       1.0  0.6113431206291261  0.4743857272976639  0.6472232215316335  1.0000
  H   H46       1.0  0.3886568792659167  0.5256142724016336  0.35277677850973616  1.0000
  H   H47       1.0  0.7671216932462875  0.5150736485751125  0.7882259864940249  1.0000
  H   H48       1.0  0.23287830664875497  0.4849263511241851  0.2117740135473447  1.0000
  H   H49       1.0  0.6690355419830802  0.6522303395346633  0.8884001693979937  1.0000
  H   H50       1.0  0.3309644575824764  0.34776966086240046  0.11159983064250373  1.0000
  H   H51       1.0  0.4632709174354555  0.7711326743729261  0.9012112119735138  1.0000
  H   H52       1.0  0.5367290832567135  0.22886732532671464  0.0987887880699214  1.0000
  H   H53       1.0  0.35132316561498  0.7508763870225422  0.8142177094962829  1.0000
  H   H54       1.0  0.6486768339505767  0.24912361337452144  0.18578229054421436  1.0000
  H   H55       1.0  0.4526657029297897  0.6148352978076944  0.7095928583036444  1.0000
  H   H56       1.0  0.5473342974328935  0.38516470258971225  0.29040714173891863  1.0000
  H   H57       1.0  0.30614468435959147  0.061929126620444114  0.1907405030120497  1.0000
  H   H58       1.0  0.6938553163325776  0.9380708730791966  0.8092594970313856  1.0000
  H   H59       1.0  0.5277385813192776  0.017295810888911915  0.07590032827868089  1.0000
  H   H60       1.0  0.4722614185757652  0.9827041888103857  0.9240996717626887  1.0000
  H   H61       1.0  0.6526789127072574  0.30662967525181667  0.8585885483681285  1.0000
  H   H62       1.0  0.34732108685829916  0.693370325145247  0.141411451672369  1.0000
  H   H63       1.0  0.48617589275655027  0.48137762400369993  0.8830158491507473  1.0000
  H   H64       1.0  0.5138241079356187  0.5186223756959407  0.11698415089268796  1.0000
  H   H65       1.0  0.9937237611283988  0.5772678600101703  0.13870520881992784  1.0000
  H   H66       1.0  0.00627623876664403  0.4227321396891273  0.8612947912214417  1.0000
  H   H67       1.0  0.9353243852597788  0.4467411128290283  0.233306074645733  1.0000
  H   H68       1.0  0.06467561510290441  0.5532588875683784  0.76669392539683  1.0000
  H   H69       1.0  0.6689869936143383  0.07752503877967008  0.04522560794625229  1.0000
  H   H70       1.0  0.33101300595121835  0.9224749616173936  0.9547743920942451  1.0000
  H   H71       1.0  0.8861885139923519  0.9676291925921223  0.9945424606686063  1.0000
  H   H72       1.0  0.11381148637033137  0.03237080780528438  0.005457539373956653  1.0000
  H   H73       1.0  0.007028583705524624  0.9425044198686798  0.8428367383875689  1.0000
  H   H74       1.0  0.9929714158600321  0.05749558052838375  0.15716326165292852  1.0000
  H   H75       1.0  0.9063937866252078  0.028709353567234655  0.7444785814153476  1.0000
  H   H76       1.0  0.09360621326983484  0.971290646132063  0.255521418626022  1.0000
  H   H77       1.0  0.6866599211890345  0.13574171482480188  0.7953982408709267  1.0000
  H   H78       1.0  0.31334007982964157  0.8642582848228115  0.20460175855422597  1.0000
  H   H79       1.0  0.35666585432778203  0.5821061363324774  0.019646242454926265  1.0000
  H   H80       1.0  0.6433341463643869  0.4178938633671632  0.9803537575885091  1.0000
  H   H81       1.0  0.29987863034819995  0.7536298854020491  0.019249772207358344  1.0000
  H   H82       1.0  0.7001213695468426  0.24637011429724856  0.9807502278340112  1.0000
  H   H83       1.0  0.11636450212573933  0.855837814299941  0.9864652555988506  1.0000
  H   H84       1.0  0.8836354974398173  0.14416218609712264  0.013534744441646884  1.0000
  H   H85       1.0  0.9863975609625955  0.785003837932514  0.9541091522284658  1.0000
  H   H86       1.0  0.013602438932447286  0.21499616176678346  0.04589084781290378  1.0000
  H   H87       1.0  0.04147481642801983  0.6132669897591453  0.9565517540370148  1.0000
  H   H88       1.0  0.9585251842641491  0.3867330099404953  0.04344824600642049  1.0000
  H   H89       1.0  0.8916059163392072  0.27997064999845145  0.19435982198444424  1.0000
  H   H90       1.0  0.10839408402347596  0.7200293503989552  0.8056401780581188  1.0000
  H   H91       1.0  0.7525316368110113  0.2352871144621558  0.3180393068678087  1.0000
  H   H92       1.0  0.24746836308403156  0.7647128852371418  0.6819606931735608  1.0000
  H   H93       1.0  0.8279676592669853  0.1611022027020419  0.4309925930753802  1.0000
  H   H94       1.0  0.1720323414251838  0.8388977969975988  0.5690074069680551  1.0000
  H   H95       1.0  0.04086203869960726  0.13519194419872688  0.4213146661797842  1.0000
  H   H96       1.0  0.9591379619925618  0.8648080555009137  0.578685333863651  1.0000
  H   H97       1.0  0.1797250239289952  0.17914883226570444  0.29811431513932185  1.0000
  H   H98       1.0  0.8202749759660474  0.8208511674335932  0.7018856849020478  1.0000
  H   H99       1.0  0.16979535186881808  0.3041180161621319  0.8977906683961392  1.0000
  H   H100      1.0  0.8302046480262248  0.6958819835371657  0.10220933164523034  1.0000
  H   H101      1.0  0.30353700106898024  0.1066482398923339  0.941385540350536  1.0000
  H   H102      1.0  0.6964629988260624  0.8933517598069637  0.058614459690833544  1.0000
  H   H103      1.0  0.06547341029657934  0.2521158469530942  0.8465291115372734  1.0000
  H   H104      1.0  0.9345265895984635  0.7478841527462035  0.1534708885040961  1.0000
  H   H105      1.0  0.012142252558548049  0.18426134429549468  0.7465534490517861  1.0000
  H   H106      1.0  0.9878577473364947  0.815738655403803  0.25344655098958346  1.0000
  H   H107      1.0  0.12337275915655149  0.015944116505882996  0.6981820621447248  1.0000
  H   H108      1.0  0.8766272407384914  0.9840558831934145  0.3018179378966448  1.0000
  H   H109      1.0  0.2902452750079089  0.9155658095704706  0.7489580968149261  1.0000
  H   H110      1.0  0.7097547248871338  0.08443419012882691  0.2510419032264435  1.0000
  H   H111      1.0  0.34790129141372594  0.9840819682249136  0.8458174835182958  1.0000
  H   H112      1.0  0.6520987088078237  0.015918031422356687  0.15418251590479135  1.0000
  B   B1        1.0  0.8492891967819  0.34966012901609417  0.5669303710441034  1.0000
  B   B2        1.0  0.1507108039102692  0.6503398706835464  0.43306962899933193  1.0000
  B   B3        1.0  0.26684775344331796  0.28539589339613575  0.994126938483462  1.0000
  B   B4        1.0  0.7331522472488513  0.7146041063035047  0.005873061559973181  1.0000
  C   C1        1.0  0.893005448919891  0.43816297578201024  0.43882633225414186  1.0000
  C   C2        1.0  0.1069945509751517  0.5618370239172873  0.5611736677872277  1.0000
  C   C3        1.0  0.9985746337725647  0.45565841062998313  0.38427553712244955  1.0000
  C   C4        1.0  0.0014253657929919627  0.5443415897670805  0.6157244629180478  1.0000
  C   C5        1.0  0.0995017343663317  0.40162021845792417  0.4055247173648535  1.0000
  C   C6        1.0  0.9004982655287112  0.5983797812413734  0.5944752826765161  1.0000
  C   C7        1.0  0.059364216664427594  0.3476126782371222  0.47273697928118075  1.0000
  C   C8        1.0  0.9406357829011291  0.6523873221599413  0.5272630207593165  1.0000
  C   C9        1.0  0.12081348949318696  0.2660084480490781  0.5077574382661891  1.0000
  C   C10       1.0  0.8791865104018557  0.7339915516502195  0.49224256177518033  1.0000
  C   C11       1.0  0.050277806633652826  0.2132573513640188  0.5535847703367174  1.0000
  C   C12       1.0  0.9497221932613896  0.7867426483352787  0.4464152297046523  1.0000
  C   C13       1.0  0.08425649976307072  0.11567666113365516  0.5688000543514339  1.0000
  C   C14       1.0  0.9157435005996122  0.8843233392637514  0.43119994569112924  1.0000
  C   C15       1.0  0.9782160400834956  0.09621326915902832  0.5953915131603212  1.0000
  C   C16       1.0  0.021783959811547227  0.9037867305402693  0.4046084868810483  1.0000
  C   C17       1.0  0.8763858736439069  0.18139636811038604  0.5964531233659308  1.0000
  C   C18       1.0  0.12361412592164985  0.8186036322866777  0.4035468766745667  1.0000
  C   C19       1.0  0.7531890117288081  0.20221598546392916  0.6009212080750198  1.0000
  C   C20       1.0  0.24681098863387496  0.7977840149334775  0.39907879196754326  1.0000
  C   C21       1.0  0.6941632084868324  0.2841815376943579  0.5657837911853769  1.0000
  C   C22       1.0  0.30583679140821024  0.7158184620049398  0.4342162088559926  1.0000
  C   C23       1.0  0.5945535211309385  0.31137678638728905  0.5341182374264923  1.0000
  C   C24       1.0  0.4054464787641041  0.6886232133120086  0.46588176261487724  1.0000
  C   C25       1.0  0.6019649696319113  0.3841397889356536  0.4840566949816872  1.0000
  C   C26       1.0  0.3980350307307718  0.6158602114617531  0.5159433050608758  1.0000
  C   C27       1.0  0.7065169561916473  0.4032291495858467  0.4835549648067274  1.0000
  C   C28       1.0  0.2934830437033954  0.5967708501134508  0.5164450352346421  1.0000
  C   C29       1.0  0.774357196769564  0.4561379097059217  0.4353701470551457  1.0000
  C   C30       1.0  0.22564280312547869  0.5438620899933758  0.5646298529862239  1.0000
  C   C31       1.0  0.25523660496477024  0.22617158843576382  0.488709301528542  1.0000
  C   C32       1.0  0.7447633946007863  0.7738284119612998  0.5112906985119555  1.0000
  C   C33       1.0  0.33967499859691186  0.22882413592127973  0.41013961834201645  1.0000
  C   C34       1.0  0.660325002095257  0.771175863778361  0.5898603817014187  1.0000
  C   C35       1.0  0.4663290458515823  0.18702560131295945  0.39346589133259174  1.0000
  C   C36       1.0  0.5336709537139743  0.8129743990841041  0.6065341087079057  1.0000
  C   C37       1.0  0.5125410480967453  0.140474178840245  0.45389800134500735  1.0000
  C   C38       1.0  0.4874589514688113  0.8595258215568187  0.5461019986954901  1.0000
  C   C39       1.0  0.4303682967554471  0.13701699141740825  0.5320565085849499  1.0000
  C   C40       1.0  0.5696317028101096  0.8629830089796553  0.4679434914555474  1.0000
  C   C41       1.0  0.30354138818173293  0.17973462197006085  0.549347717110961  1.0000
  C   C42       1.0  0.6964586125104362  0.8202653777295799  0.4506522829324743  1.0000
  C   C43       1.0  0.6912427224512909  0.13640219537177056  0.6312771895389244  1.0000
  C   C44       1.0  0.30875727791139235  0.8635978050256362  0.36872281050363864  1.0000
  C   C45       1.0  0.7461007219675782  0.04223984067653746  0.6010013453177723  1.0000
  C   C46       1.0  0.2538992775979786  0.9577601597205263  0.39899865472272505  1.0000
  C   C47       1.0  0.683871323120904  0.9822875206972647  0.6305737719542698  1.0000
  C   C48       1.0  0.3161286767741386  0.01771247900203304  0.36942622808709985  1.0000
  C   C49       1.0  0.566595188277405  0.014996140505040122  0.6915439472820151  1.0000
  C   C50       1.0  0.43340481194414465  0.9850038591422302  0.308456052141072  1.0000
  C   C51       1.0  0.5113322084853923  0.10858852981945863  0.7222402489557329  1.0000
  C   C52       1.0  0.48866779108016417  0.8914114705776051  0.27775975108476453  1.0000
  C   C53       1.0  0.572677301107236  0.1689475108594297  0.6918131878537067  1.0000
  C   C54       1.0  0.4273226984583204  0.831052489537634  0.3081868121867907  1.0000
  C   C55       1.0  0.7364923958393659  0.5154184246623561  0.3719844649920744  1.0000
  C   C56       1.0  0.2635076040556768  0.48458157503694155  0.6280155350492953  1.0000
  C   C57       1.0  0.6930015263897639  0.48466090187637284  0.31887046777452527  1.0000
  C   C58       1.0  0.3069984735052788  0.5153390978229249  0.6811295322668444  1.0000
  C   C59       1.0  0.665379818926079  0.5376781751090375  0.2551156552329067  1.0000
  C   C60       1.0  0.33462018096896384  0.46232182459026006  0.7448843448084629  1.0000
  C   C61       1.0  0.6812175730843979  0.6225608619113313  0.24278552611774515  1.0000
  C   C62       1.0  0.31878242727828504  0.3774391384860754  0.757214473924818  1.0000
  C   C63       1.0  0.7230715532619554  0.654631234401312  0.29548681501950597  1.0000
  C   C64       1.0  0.27692844743021383  0.3453687652983286  0.7045131850239291  1.0000
  C   C65       1.0  0.7502317708121579  0.6018353476834695  0.3596568446189266  1.0000
  C   C66       1.0  0.2497682290828848  0.39816465201582807  0.640343155422443  1.0000
  C   C67       1.0  0.7930091776075228  0.4198020810124702  0.6473245622665754  1.0000
  C   C68       1.0  0.20699082228752005  0.5801979186868275  0.3526754377747941  1.0000
  C   C69       1.0  0.6740230055056713  0.47906705869498134  0.6764396066840248  1.0000
  C   C70       1.0  0.3259769940598853  0.5209329417020823  0.3235603933564727  1.0000
  C   C71       1.0  0.6171751433783906  0.5556002051551172  0.7407322516789865  1.0000
  C   C72       1.0  0.3828248565166521  0.4443997945441804  0.2592677483623832  1.0000
  C   C73       1.0  0.6767273171648884  0.5670173501338951  0.7924892993564627  1.0000
  C   C74       1.0  0.32327268319779484  0.43298265026351157  0.20751070068610025  1.0000
  C   C75       1.0  0.6216438834634909  0.644338140434773  0.8490939954337628  1.0000
  C   C76       1.0  0.37835611643155176  0.3556618592645246  0.1509060046076067  1.0000
  C   C77       1.0  0.5055135176568327  0.711526607568893  0.85615460141248  1.0000
  C   C78       1.0  0.49448648223820996  0.2884733921304046  0.14384539862888945  1.0000
  C   C79       1.0  0.443792913130817  0.7002699125155081  0.8067698686082017  1.0000
  C   C80       1.0  0.5562070870907327  0.2997300871317623  0.1932301308148855  1.0000
  C   C81       1.0  0.4993874517656342  0.6232928661552609  0.74953112810989  1.0000
  C   C82       1.0  0.5006125481294088  0.37670713354403657  0.2504688719314796  1.0000
  C   C83       1.0  0.2498205316794971  0.1874574181225757  0.11816946298131027  1.0000
  C   C84       1.0  0.7501794678860596  0.812542582274488  0.8818305370591871  1.0000
  C   C85       1.0  0.33066601939351914  0.1011063853752568  0.13766502157668142  1.0000
  C   C86       1.0  0.6693339812986502  0.898893614324384  0.8623349784667537  1.0000
  C   C87       1.0  0.4467455784555272  0.07820829299018936  0.07780040143666363  1.0000
  C   C88       1.0  0.5532544214365362  0.9217917073548471  0.9221995979855512  1.0000
  C   C89       1.0  0.4409364437168035  0.14999582752305254  0.019700742437730186  1.0000
  C   C90       1.0  0.5590635569753655  0.8500041721765881  0.980299257605705  1.0000
  C   C91       1.0  0.5292807745802849  0.174788104438202  0.9542555871775585  1.0000
  C   C92       1.0  0.47071922564126467  0.8252118952090683  0.04574441224552858  1.0000
  C   C93       1.0  0.4900048677729535  0.2670272383743971  0.9268655673731483  1.0000
  C   C94       1.0  0.5099951321220894  0.7329727613249004  0.07313443266822127  1.0000
  C   C95       1.0  0.5536675331598148  0.32788732344332805  0.8883837633105376  1.0000
  C   C96       1.0  0.44633246753235445  0.6721126762563124  0.11161623673289757  1.0000
  C   C97       1.0  0.467054887329506  0.4188404751059459  0.9012681657549008  1.0000
  C   C98       1.0  0.5329451125655369  0.5811595245933516  0.09873183428646883  1.0000
  C   C99       1.0  0.3477563312501142  0.41613692213446835  0.9472309949349095  1.0000
  C   C100      1.0  0.6522436694420549  0.5838630775651723  0.052769005108525675  1.0000
  C   C101      1.0  0.2300530795112567  0.48485623411960166  0.9913855102582269  1.0000
  C   C102      1.0  0.7699469200542999  0.5151437662774621  0.008614489782270666  1.0000
  C   C103      1.0  0.1412716989330887  0.45535481327825383  0.05073327395385957  1.0000
  C   C104      1.0  0.8587283009619541  0.5446451864210436  0.94926672608751  1.0000
  C   C105      1.0  0.036532546028962914  0.5023252531784201  0.1233696089291973  1.0000
  C   C106      1.0  0.9634674535365938  0.4976747472186436  0.8766303911113001  1.0000
  C   C107      1.0  0.0065834512910809525  0.4347168202599316  0.17278322651733616  1.0000
  C   C108      1.0  0.9934165494010881  0.565283179439709  0.827216773526099  1.0000
  C   C109      1.0  0.09277070156560335  0.3445022405204548  0.13204089995092647  1.0000
  C   C110      1.0  0.9072292986559464  0.6554977591268154  0.8679590994721607  1.0000
  C   C111      1.0  0.1286220521015062  0.2531441410284917  0.16083941943051064  1.0000
  C   C112      1.0  0.8713779477935366  0.7468558586708061  0.8391605806108589  1.0000
  C   C113      1.0  0.6606348330291713  0.11276431596745276  0.9240967287267529  1.0000
  C   C114      1.0  0.33936516686587137  0.8872356837318448  0.07590327131461676  1.0000
  C   C115      1.0  0.719689865346978  0.06474669253528924  0.9790146430357293  1.0000
  C   C116      1.0  0.2803101342185785  0.9352533078617744  0.020985357004768196  1.0000
  C   C117      1.0  0.8430069269886968  0.0038302341503020673  0.9503459270335595  1.0000
  C   C118      1.0  0.15699307257685985  0.9961697662467616  0.04965407300693794  1.0000
  C   C119      1.0  0.9106259989615031  0.990077306512255  0.8657482643168337  1.0000
  C   C120      1.0  0.08937400093353944  0.00992269318704256  0.13425173572453586  1.0000
  C   C121      1.0  0.8541442946782687  0.038987144464458674  0.8105829722890381  1.0000
  C   C122      1.0  0.14585570601390016  0.961012855235182  0.18941702775439714  1.0000
  C   C123      1.0  0.7308315952519874  0.09999867368607053  0.8391154278260818  1.0000
  C   C124      1.0  0.26916840464305536  0.9000013260132271  0.1608845722152877  1.0000
  C   C125      1.0  0.20309347642428424  0.586001219162496  0.9871800067067829  1.0000
  C   C126      1.0  0.7969065242678849  0.4139987805371447  0.01281999333665231  1.0000
  C   C127      1.0  0.27626658926137065  0.6262487315224886  0.004328077680154543  1.0000
  C   C128      1.0  0.7237334106336724  0.37375126817680887  0.9956719223612149  1.0000
  C   C129      1.0  0.2441208025492917  0.7227728543755716  0.004345433324732256  1.0000
  C   C130      1.0  0.755879197345751  0.277227145323726  0.9956545667166372  1.0000
  C   C131      1.0  0.14071709233470694  0.7803977975020151  0.9857452630222581  1.0000
  C   C132      1.0  0.8592829075603358  0.21960220219728244  0.014254737019111565  1.0000
  C   C133      1.0  0.06816265711797503  0.7408824508727573  0.9678567870978598  1.0000
  C   C134      1.0  0.9318373427770678  0.25911754882654026  0.03214321294350977  1.0000
  C   C135      1.0  0.098289134925541  0.6445409783064362  0.9695737509693502  1.0000
  C   C136      1.0  0.9017108646400157  0.3554590220906273  0.030426249071147226  1.0000
  C   C137      1.0  0.04618369941044424  0.23090248667413274  0.2368358436878233  1.0000
  C   C138      1.0  0.9538163001551124  0.7690975137229309  0.7631641563526742  1.0000
  C   C139      1.0  0.9240507290064021  0.24827493163199463  0.24431016260319727  1.0000
  C   C140      1.0  0.07594927055915453  0.7517250687650692  0.7556898374373002  1.0000
  C   C141      1.0  0.8467173806653131  0.22227630892678368  0.3132493846738089  1.0000
  C   C142      1.0  0.15328261922972966  0.7777236907725139  0.6867506153675607  1.0000
  C   C143      1.0  0.8890465750258982  0.1800066534656126  0.37649823989774195  1.0000
  C   C144      1.0  0.11095342453965844  0.819993346931451  0.6235017601427555  1.0000
  C   C145      1.0  0.008790556158453292  0.16521571948705585  0.37084931503077184  1.0000
  C   C146      1.0  0.9912094445337158  0.8347842802125848  0.6291506850126635  1.0000
  C   C147      1.0  0.08686504281013756  0.19005087577884613  0.30167294107604853  1.0000
  C   C148      1.0  0.9131349578820316  0.8099491239207945  0.6983270589673867  1.0000
  C   C149      1.0  0.22356724622431734  0.2506555220865446  0.9292596802893238  1.0000
  C   C150      1.0  0.7764327533412392  0.7493444783105191  0.07074031975117365  1.0000
  C   C151      1.0  0.2487224821711135  0.16044162024398104  0.91078301202025  1.0000
  C   C152      1.0  0.7512775173944432  0.8395583801530826  0.08921698802024734  1.0000
  C   C153      1.0  0.21182679157006837  0.12331570442392951  0.8529999734194071  1.0000
  C   C154      1.0  0.7881732087926147  0.8766842959734772  0.1470000266231558  1.0000
  C   C155      1.0  0.11715403930938208  0.1788308856915055  0.8236528001653037  1.0000
  C   C156      1.0  0.8828459613827871  0.8211691140081351  0.17634719987813138  1.0000
  C   C157      1.0  0.08658485812980107  0.14067176725993707  0.7679497990532786  1.0000
  C   C158      1.0  0.913415142232882  0.8593282331374695  0.23205020098928447  1.0000
  C   C159      1.0  0.1489336722919577  0.045873651313373676  0.7406255876180555  1.0000
  C   C160      1.0  0.8510663272735991  0.9541263490836899  0.2593744124224419  1.0000
  C   C161      1.0  0.24199908471894174  0.9896261216186316  0.7695694815076171  1.0000
  C   C162      1.0  0.7580009151761011  0.010373878080665906  0.23043051853375254  1.0000
  C   C163      1.0  0.27298002234909324  0.027999417784150854  0.8249598451934007  1.0000
  C   C164      1.0  0.7270199783430759  0.9720005819154897  0.17504015485003446  1.0000
  N   N1        1.0  0.9342178162888893  0.3778545901040046  0.49306104662032363  1.0000
  N   N2        1.0  0.06578218360615334  0.622145409595293  0.506938953421046  1.0000
  N   N3        1.0  0.9247424667815517  0.24909186407976153  0.5752360694535942  1.0000
  N   N4        1.0  0.07525753358113134  0.7509081363176452  0.42476393058896883  1.0000
  N   N5        1.0  0.7520023934757456  0.3449160020857908  0.5372934776282764  1.0000
  N   N6        1.0  0.24799760608981108  0.6550839983112728  0.46270652241222093  1.0000
  N   N7        1.0  0.319753120345369  0.20980605948144782  0.045290471060326035  1.0000
  N   N8        1.0  0.6802468795496739  0.7901939402178498  0.9547095289810436  1.0000
  N   N9        1.0  0.3671536574094072  0.32328273166683447  0.9553045531898445  1.0000
  N   N10       1.0  0.6328463424856353  0.6767172680324631  0.04469544685152508  1.0000
  N   N11       1.0  0.16492796945548616  0.36180876487729774  0.05732952943223638  1.0000
  N   N12       1.0  0.8350720307660633  0.6381912347699726  0.9426704699908507  1.0000
