data_image0
_chemical_formula_structural       H28C36N4O8I4
_chemical_formula_sum              "H28 C36 N4 O8 I4"
_cell_length_a       8.670821765628206
_cell_length_b       10.054393541857046
_cell_length_c       12.552734404051838
_cell_angle_alpha    67.04979400031115
_cell_angle_beta     66.304600194666
_cell_angle_gamma    66.1915116989061

_space_group_name_H-M_alt    "P 1"
_space_group_IT_number       1

loop_
  _space_group_symop_operation_xyz
  'x, y, z'

loop_
  _atom_site_type_symbol
  _atom_site_label
  _atom_site_symmetry_multiplicity
  _atom_site_fract_x
  _atom_site_fract_y
  _atom_site_fract_z
  _atom_site_occupancy
  H   H1        1.0  0.15950793588827822  0.707778908954858  0.1014862054973896  1.0000
  H   H2        1.0  0.946225182230957  0.5641523727285607  0.1764981425170014  1.0000
  H   H3        1.0  0.9501702685785954  0.4876221060478692  0.538936659062526  1.0000
  H   H4        1.0  0.37791117140639685  0.6481895861951896  0.4041961525741453  1.0000
  H   H5        1.0  0.607862565582629  0.7765515951043284  0.3299437546433197  1.0000
  H   H6        1.0  0.4666372234577468  0.9980417721575227  0.9959157806137391  1.0000
  H   H7        1.0  0.6610756623429905  0.49297044417960295  0.4504205855086912  1.0000
  H   H8        1.0  0.8268124056738075  0.33322521502972047  0.4995797811170466  1.0000
  H   H9        1.0  0.8026792471626325  0.37396272807358055  0.35454087722549843  1.0000
  H   H10       1.0  0.6615651085471296  0.07368648049377016  0.1300102224730501  1.0000
  H   H11       1.0  0.7467186573629616  0.0028798145479991314  0.0031416755859917643  1.0000
  H   H12       1.0  0.8231864158793099  0.896164515215681  0.1322432495915207  1.0000
  H   H13       1.0  0.09977438701924021  0.27263694603095884  0.10972116074894141  1.0000
  H   H14       1.0  0.8748998300447745  0.14065188963198297  0.18118479740799762  1.0000
  H   H15       1.0  0.9910663874409212  0.9409901025031581  0.5231986871964478  1.0000
  H   H16       1.0  0.29562917178186465  0.23095002604548528  0.4200017968884485  1.0000
  H   H17       1.0  0.513608556326301  0.36943662416094497  0.3467290214309697  1.0000
  H   H18       1.0  0.5205872877981148  0.4418155818271219  0.9817808583956508  1.0000
  H   H19       1.0  0.6410221519261393  0.6014985937839864  0.031144719311964747  1.0000
  H   H20       1.0  0.68201708819981  0.5378731315265812  0.17414385359571677  1.0000
  H   H21       1.0  0.8069164964997599  0.4326115151730192  0.06620046164988849  1.0000
  H   H22       1.0  0.6363500253365624  0.03788699953889449  0.45278382018882274  1.0000
  H   H23       1.0  0.7441765721947211  0.9333535900542385  0.34426488671778166  1.0000
  H   H24       1.0  0.7885663189086621  0.8585088469128337  0.48691597370306017  1.0000
  H   H25       1.0  0.25033589590979166  0.012576911723927608  0.4833744743920504  1.0000
  H   H26       1.0  0.24378921257672997  0.8912277537503884  0.07266779575583028  1.0000
  H   H27       1.0  0.3395387177999153  0.2964497762118803  0.052031240353593085  1.0000
  H   H28       1.0  0.12685809619978333  0.6393922512610012  0.5032485251579674  1.0000
  C   C1        1.0  0.16058219460791467  0.6815681624626078  0.2808002167953756  1.0000
  C   C2        1.0  0.10467439960433966  0.6634279019718919  0.19839618536652798  1.0000
  C   C3        1.0  0.9851413020116745  0.5810135545904541  0.24177574048514666  1.0000
  C   C4        1.0  0.9234162461822738  0.5160013011335942  0.36598639775622316  1.0000
  C   C5        1.0  0.9878273540398135  0.5392095092646982  0.4414390274080504  1.0000
  C   C6        1.0  0.295292486270909  0.7579209816931887  0.24276898933581828  1.0000
  C   C7        1.0  0.39816532712798985  0.7294628817289904  0.3154599471312079  1.0000
  C   C8        1.0  0.5295579208566963  0.7991550775539256  0.27187548685014523  1.0000
  C   C9        1.0  0.5639631706666646  0.8952432140774469  0.15425484111242788  1.0000
  C   C10       1.0  0.4560419657121488  0.9204431791055526  0.08640955926360071  1.0000
  C   C11       1.0  0.7977386567603507  0.4240842546410077  0.41976990968697847  1.0000
  C   C12       1.0  0.7064979029189401  0.9699981938552703  0.10213279100254538  1.0000
  C   C13       1.0  0.16864345392323968  0.17319893894017066  0.27777170498343884  1.0000
  C   C14       1.0  0.0737877313053337  0.19746325114020097  0.20080040333811958  1.0000
  C   C15       1.0  0.9445272991193814  0.12575432872647999  0.24252474645578953  1.0000
  C   C16       1.0  0.9059689145724136  0.03498630808262402  0.3614428980562122  1.0000
  C   C17       1.0  0.009443823130608188  0.015605818560579394  0.4313396182811419  1.0000
  C   C18       1.0  0.3014036843834579  0.2510542962492452  0.24120033982535435  1.0000
  C   C19       1.0  0.3552641885809757  0.2718302545971351  0.3232270801159383  1.0000
  C   C20       1.0  0.4766445568955301  0.3520281546784657  0.28075558589814054  1.0000
  C   C21       1.0  0.5439838107277933  0.4149205301236172  0.1565432470800237  1.0000
  C   C22       1.0  0.4824058301435828  0.3933845099339687  0.0793856319945207  1.0000
  C   C23       1.0  0.7623995353551595  0.9614107163521792  0.413739435338033  1.0000
  C   C24       1.0  0.6745348061092852  0.5018316822747371  0.10500741215135556  1.0000
  C   C25       1.0  0.31045400793264144  0.43773277046824766  0.6402864304020878  1.0000
  C   C26       1.0  0.16085389243639425  0.5772514201987093  0.6695444319810873  1.0000
  C   C27       1.0  0.09904204084444197  0.6004488357012204  0.7820987335049712  1.0000
  C   C28       1.0  0.1657603890826448  0.49013669634727164  0.8789107949454711  1.0000
  C   C29       1.0  0.3123054346721712  0.3443907943619296  0.8527813584071181  1.0000
  C   C30       1.0  0.3728951206676545  0.32598787476142194  0.7368708179601475  1.0000
  C   C31       1.0  0.3149445726772099  0.8442171951285029  0.8519461182572743  1.0000
  C   C32       1.0  0.16503578202278768  0.9848315295563799  0.8856705709678874  1.0000
  C   C33       1.0  0.09185480852834498  0.09533068285033947  0.7957177649848378  1.0000
  C   C34       1.0  0.15028695767597663  0.08643057549596624  0.675002082236649  1.0000
  C   C35       1.0  0.29134521391275964  0.9431626683230462  0.6457721651060667  1.0000
  C   C36       1.0  0.37044372035763445  0.8335797995741382  0.7305777836753002  1.0000
  N   N1        1.0  0.10023446208468674  0.619640757374701  0.4006422784083274  1.0000
  N   N2        1.0  0.3268115738191327  0.8551891080650926  0.13120321046352176  1.0000
  N   N3        1.0  0.13801687168654814  0.07970185725552893  0.3908068951973559  1.0000
  N   N4        1.0  0.36863630726613544  0.312968228722681  0.12180191343956223  1.0000
  O   O1        1.0  0.3676430595969009  0.43436638301864544  0.5321429496244886  1.0000
  O   O2        1.0  0.09556951817376887  0.6754295842287299  0.5818750898423527  1.0000
  O   O3        1.0  0.11238446466528683  0.5008448140838696  0.9840989410446221  1.0000
  O   O4        1.0  0.3691097053043474  0.250036805101413  0.9410884321009221  1.0000
  O   O5        1.0  0.37747214912157445  0.7456446401277773  0.9334100339103837  1.0000
  O   O6        1.0  0.11993958968133062  0.9887164467319491  0.9944138323934322  1.0000
  O   O7        1.0  0.09785080108779638  0.18684107029880184  0.5890487683810782  1.0000
  O   O8        1.0  0.3358248876537649  0.9327308262836477  0.5353814418989377  1.0000
  I   I1        1.0  0.8932600560905638  0.7948213769968013  0.8164814165416802  1.0000
  I   I2        1.0  0.5763383653946172  0.13058269262723612  0.7020417296320683  1.0000
  I   I3        1.0  0.8943881316793774  0.29210462614002736  0.832339673538517  1.0000
  I   I4        1.0  0.5720935092816066  0.6393268678451463  0.6920519849108013  1.0000
