data_image0
_chemical_formula_structural       H36C40N4O8
_chemical_formula_sum              "H36 C40 N4 O8"
_cell_length_a       5.246960681728786
_cell_length_b       7.722159593795891
_cell_length_c       20.446634795447473
_cell_angle_alpha    90.0
_cell_angle_beta     97.99550420178103
_cell_angle_gamma    90.0

_space_group_name_H-M_alt    "P 1"
_space_group_IT_number       1

loop_
  _space_group_symop_operation_xyz
  'x, y, z'

loop_
  _atom_site_type_symbol
  _atom_site_label
  _atom_site_symmetry_multiplicity
  _atom_site_fract_x
  _atom_site_fract_y
  _atom_site_fract_z
  _atom_site_occupancy
  H   H1        1.0  0.6362804553293758  0.2604732375145425  0.7521124258709442  1.0000
  H   H2        1.0  0.363719544242726  0.7604732379162505  0.24788757451646196  1.0000
  H   H3        1.0  0.9232624393144575  0.3761495958117303  0.6871976734936751  1.0000
  H   H4        1.0  0.07673756025910464  0.8761495962134385  0.3128023264047053  1.0000
  H   H5        1.0  0.05538276573119656  0.38782578288152875  0.5761386079208154  1.0000
  H   H6        1.0  0.9446172338423656  0.8878257819882623  0.4238613919775649  1.0000
  H   H7        1.0  0.4300543156420278  0.044736902391599435  0.5021563694308943  1.0000
  H   H8        1.0  0.5699456839315343  0.5447369014983331  0.49784363046748603  1.0000
  H   H9        1.0  0.3013287868798702  0.03317385206669572  0.613594181222152  1.0000
  H   H10       1.0  0.6986712126936919  0.5331738511734293  0.38640581867622836  1.0000
  H   H11       1.0  0.01190441069581522  0.3122941219626575  0.4652324989372666  1.0000
  H   H12       1.0  0.988095588877747  0.8122941223643656  0.5347675009611138  1.0000
  H   H13       1.0  0.5405792096095706  0.09452290012063856  0.4080297704994052  1.0000
  H   H14       1.0  0.45942078996399144  0.5945229005223467  0.5919702293989753  1.0000
  H   H15       1.0  0.1306572560504811  0.3598255819825838  0.3737025772541345  1.0000
  H   H16       1.0  0.8693427454476547  0.859825582384292  0.6262974227133132  1.0000
  H   H17       1.0  0.25336145671582105  0.38398909967909883  0.26210206619605825  1.0000
  H   H18       1.0  0.7466385447823146  0.8839890987858324  0.7378979337713896  1.0000
  H   H19       1.0  0.6093522256259818  0.06152983944824681  0.18407910089249188  1.0000
  H   H20       1.0  0.3906477739475803  0.5615298385549804  0.8159208990058884  1.0000
  H   H21       1.0  0.48464059701591666  0.0372353273080515  0.2959039584224874  1.0000
  H   H22       1.0  0.5153594044807587  0.5372353277097596  0.7040960420339861  1.0000
  H   H23       1.0  0.14440367415063782  0.20454371614761901  0.7675851492104603  1.0000
  H   H24       1.0  0.8555963254229244  0.7045437165493271  0.23241485068792003  1.0000
  H   H25       1.0  0.46455797883035976  0.02960132165406809  0.8412034423110075  1.0000
  H   H26       1.0  0.5354420226677759  0.5296013207608017  0.15879655765644007  1.0000
  H   H27       1.0  0.08261774162738568  0.18994702352156148  0.005807981010241594  1.0000
  H   H28       1.0  0.9173822579447162  0.6899470226282951  0.9941920193771646  1.0000
  H   H29       1.0  0.7728565193051876  0.3555513942247295  0.9241317548557255  1.0000
  H   H30       1.0  0.22714348026837466  0.8555513946264376  0.07586824504265485  1.0000
  H   H31       1.0  0.4666586368593082  0.007940865408850912  0.027637324745191347  1.0000
  H   H32       1.0  0.5333413627142539  0.5079408658105591  0.9723626751531891  1.0000
  H   H33       1.0  0.4541555898338063  0.8470956097897113  0.9641865202212078  1.0000
  H   H34       1.0  0.5458444097397559  0.34709560938800316  0.03581347967717252  1.0000
  H   H35       1.0  0.6859121003731413  0.01256585529234075  0.9690934453353133  1.0000
  H   H36       1.0  0.3140878991989605  0.5125658556940489  0.030906555052092784  1.0000
  C   C1        1.0  0.6059733139744075  0.1997609802365829  0.6578097196531845  1.0000
  C   C2        1.0  0.39402668559915466  0.699760980638291  0.342190280245196  1.0000
  C   C3        1.0  0.817783144840937  0.30239269230800114  0.6467213277918911  1.0000
  C   C4        1.0  0.18221685473262514  0.8023926914147347  0.3532786721064893  1.0000
  C   C5        1.0  0.8904832447388777  0.30873575339150333  0.5840411708896357  1.0000
  C   C6        1.0  0.1095167548346845  0.8087357524982368  0.41595882900874476  1.0000
  C   C7        1.0  0.7551988567192953  0.21795136056915915  0.5301420686692269  1.0000
  C   C8        1.0  0.24480114477884027  0.7179513609708672  0.4698579312982208  1.0000
  C   C9        1.0  0.5405283792960839  0.1177481025813714  0.5421207766158276  1.0000
  C   C10       1.0  0.45947162220205173  0.6177481029830796  0.45787922335162023  1.0000
  C   C11       1.0  0.4671339564088916  0.10929276321588383  0.6044461139731111  1.0000
  C   C12       1.0  0.5328660431646706  0.609292763617592  0.3955538859252692  1.0000
  C   C13       1.0  0.8367387441639188  0.23578828537328547  0.4658530687217037  1.0000
  C   C14       1.0  0.16326125540964329  0.735788284480019  0.5341469311766768  1.0000
  C   C15       1.0  0.7161390775860199  0.17076681904624916  0.40786876798876864  1.0000
  C   C16       1.0  0.28386092198754215  0.6707668181529828  0.5921312319096117  1.0000
  C   C17       1.0  0.7982336668872954  0.19338701070096945  0.34378295330706227  1.0000
  C   C18       1.0  0.20176633268626687  0.6933870111026775  0.6562170465913181  1.0000
  C   C19       1.0  0.01508575233386194  0.29311166293668633  0.33288656073846296  1.0000
  C   C20       1.0  0.9849142472397002  0.7931116633383944  0.6671134391599175  1.0000
  C   C21       1.0  0.08607391714185571  0.30807204786486314  0.270419568214017  1.0000
  C   C22       1.0  0.9139260824317064  0.8080720469715966  0.7295804316843634  1.0000
  C   C23       1.0  0.94018522212116  0.22282285532953983  0.21725250123914525  1.0000
  C   C24       1.0  0.05981477745240206  0.7228228557312479  0.7827474986592351  1.0000
  C   C25       1.0  0.7222969396799642  0.1255084187561557  0.2258002573178382  1.0000
  C   C26       1.0  0.27770305989359784  0.6255084191578638  0.7741997425805422  1.0000
  C   C27       1.0  0.6539543082886254  0.11211468754097903  0.2886157534413891  1.0000
  C   C28       1.0  0.34604569128493673  0.6121146866477126  0.7113842464569913  1.0000
  C   C29       1.0  0.13932152482483037  0.19443137010613887  0.8204219603387368  1.0000
  C   C30       1.0  0.8606784747487318  0.694431370507847  0.17957803955964355  1.0000
  C   C31       1.0  0.3152334912536474  0.09923957549591349  0.8624595233312398  1.0000
  C   C32       1.0  0.6847665083199147  0.5992395746026471  0.1375404765671405  1.0000
  C   C33       1.0  0.30156415705976936  0.09189909265410054  0.930453042219057  1.0000
  C   C34       1.0  0.6984358444383663  0.5918990930558087  0.06954695774839086  1.0000
  C   C35       1.0  0.10464189878904899  0.18699745096697462  0.9534998903722491  1.0000
  C   C36       1.0  0.8953581007845132  0.6869974513686827  0.046500109526131164  1.0000
  C   C37       1.0  0.9315404713785741  0.2805984988630465  0.9101673602758573  1.0000
  C   C38       1.0  0.06845952819498803  0.7805984992647547  0.08983263962252303  1.0000
  C   C39       1.0  0.4863466734174196  0.9848653977716559  0.9757475844472884  1.0000
  C   C40       1.0  0.5136533261546823  0.48486539866492234  0.024252415940117792  1.0000
  N   N1        1.0  0.017386117364729566  0.23544911729883852  0.15239077892601613  1.0000
  N   N2        1.0  0.9826138822073723  0.7354491177005467  0.8476092214613901  1.0000
  N   N3        1.0  0.9478230530401259  0.28303652539841173  0.8444121792332058  1.0000
  N   N4        1.0  0.052176948458009895  0.7830365258001198  0.15558782073424182  1.0000
  O   O1        1.0  0.5288586956373647  0.18225439696049872  0.7175291204011801  1.0000
  O   O2        1.0  0.47114130393473713  0.6822543973622067  0.282470879986226  1.0000
  O   O3        1.0  0.8846879011868782  0.1597036263004482  0.10524873992718453  1.0000
  O   O4        1.0  0.11531210031125738  0.6597036267021562  0.8947512600402632  1.0000
  O   O5        1.0  0.21284663078548222  0.3221000459506617  0.1453631883497855  1.0000
  O   O6        1.0  0.78715336878808  0.8221000450573952  0.8546368115485947  1.0000
  O   O7        1.0  0.777664361656838  0.3744594377877384  0.8046846196344746  1.0000
  O   O8        1.0  0.22233563983983748  0.874459436894472  0.19531538082199892  1.0000
