data_image0
_chemical_formula_structural       H52C72N12O16
_chemical_formula_sum              "H52 C72 N12 O16"
_cell_length_a       37.144621947034345
_cell_length_b       5.619685151896246
_cell_length_c       7.36664693268898
_cell_angle_alpha    90.0
_cell_angle_beta     90.0
_cell_angle_gamma    90.0

_space_group_name_H-M_alt    "P 1"
_space_group_IT_number       1

loop_
  _space_group_symop_operation_xyz
  'x, y, z'

loop_
  _atom_site_type_symbol
  _atom_site_label
  _atom_site_symmetry_multiplicity
  _atom_site_fract_x
  _atom_site_fract_y
  _atom_site_fract_z
  _atom_site_occupancy
  H   H1        1.0  0.38909537134632005  0.14540995232166468  0.44755368624630654  1.0000
  H   H2        1.0  0.6109046284643027  0.8545900473409062  0.9475536853850611  1.0000
  H   H3        1.0  0.11090462855899128  0.14540995232166468  0.9475536853850611  1.0000
  H   H4        1.0  0.8890953715208494  0.8545900473409062  0.44755368624630654  1.0000
  H   H5        1.0  0.42978460173221905  0.4369024017602704  0.35549631520674463  1.0000
  H   H6        1.0  0.5702153983476217  0.5630975996817594  0.8554963143454993  1.0000
  H   H7        1.0  0.07021539817309232  0.4369024017602704  0.8554963143454993  1.0000
  H   H8        1.0  0.9297846016375304  0.5630975996817594  0.35549631520674463  1.0000
  H   H9        1.0  0.49238536647591974  0.5680478165085177  0.352814822503145  1.0000
  H   H10       1.0  0.5076146336039209  0.43195218315405315  0.8528148216418997  1.0000
  H   H11       1.0  0.007614633698609561  0.5680478165085177  0.8528148216418997  1.0000
  H   H12       1.0  0.9923853663812311  0.43195218315405315  0.352814822503145  1.0000
  H   H13       1.0  0.5228685829053281  0.9385447898660814  0.654166255561397  1.0000
  H   H14       1.0  0.4771314169052946  0.061455209796489364  0.1541662550651725  1.0000
  H   H15       1.0  0.977131417079824  0.9385447898660814  0.1541662550651725  1.0000
  H   H16       1.0  0.022868583000016783  0.061455209796489364  0.654166255561397  1.0000
  H   H17       1.0  0.45992255202812665  0.8101960228970603  0.6545291533661142  1.0000
  H   H18       1.0  0.540077448051714  0.18980397854496975  0.15452915422735947  1.0000
  H   H19       1.0  0.040077448146402676  0.8101960228970603  0.15452915422735947  1.0000
  H   H20       1.0  0.9599225519334381  0.18980397854496975  0.6545291533661142  1.0000
  H   H21       1.0  0.5417932533731649  0.6697715046776149  0.3484958982638389  1.0000
  H   H22       1.0  0.4582067467066759  0.3302284967644149  0.8484958987600634  1.0000
  H   H23       1.0  0.9582067466119872  0.6697715046776149  0.8484958987600634  1.0000
  H   H24       1.0  0.04179325319863551  0.3302284967644149  0.3484958982638389  1.0000
  H   H25       1.0  0.6051353292019337  0.7889399922171753  0.33163022231448974  1.0000
  H   H26       1.0  0.39486467087790705  0.21106000922485457  0.8316302228107141  1.0000
  H   H27       1.0  0.8948646707832183  0.7889399922171753  0.8316302228107141  1.0000
  H   H28       1.0  0.10513532929662231  0.21106000922485457  0.33163022231448974  1.0000
  H   H29       1.0  0.6363439825475777  0.15570036511827604  0.6211928550143809  1.0000
  H   H30       1.0  0.363656017263045  0.8442996345442947  0.12119285451815659  1.0000
  H   H31       1.0  0.8636560174375744  0.15570036511827604  0.12119285451815659  1.0000
  H   H32       1.0  0.13634398264226644  0.8442996345442947  0.6211928550143809  1.0000
  H   H33       1.0  0.5730024220020182  0.03299724361558389  0.6396361442396468  1.0000
  H   H34       1.0  0.4269975778086046  0.9670027560469869  0.1396361451008921  1.0000
  H   H35       1.0  0.9269975779831339  0.03299724361558389  0.1396361451008921  1.0000
  H   H36       1.0  0.07300242209670679  0.9670027560469869  0.6396361442396468  1.0000
  H   H37       1.0  0.2957471433055488  0.20432734912427347  0.3594885942271353  1.0000
  H   H38       1.0  0.704252856774292  0.7956726523177565  0.8594885947233597  1.0000
  H   H39       1.0  0.20425285686898054  0.20432734912427347  0.8594885947233597  1.0000
  H   H40       1.0  0.7957471432108602  0.7956726523177565  0.3594885942271353  1.0000
  H   H41       1.0  0.2506996219608445  0.4588039863994863  0.521857782126221  1.0000
  H   H42       1.0  0.7493003781189962  0.5411960150425437  0.021857782987466302  1.0000
  H   H43       1.0  0.2493003779444668  0.4588039863994863  0.021857782987466302  1.0000
  H   H44       1.0  0.7506996218661559  0.5411960150425437  0.521857782126221  1.0000
  H   H45       1.0  0.3386963205047361  0.9275514177588996  0.6708473183465175  1.0000
  H   H46       1.0  0.6613036795751046  0.07244858190367118  0.17084731785029297  1.0000
  H   H47       1.0  0.16130367940057527  0.9275514177588996  0.17084731785029297  1.0000
  H   H48       1.0  0.8386963204100474  0.07244858190367118  0.6708473183465175  1.0000
  H   H49       1.0  0.38025859410120383  0.6550135907094249  0.5011974733872973  1.0000
  H   H50       1.0  0.6197414059786369  0.34498640895314586  0.0011974728910728479  1.0000
  H   H51       1.0  0.11974140580410758  0.6550135907094249  0.0011974728910728479  1.0000
  H   H52       1.0  0.8802585942757332  0.34498640895314586  0.5011974733872973  1.0000
  C   C1        1.0  0.44059773938032126  0.11464343154217596  0.5072542194764863  1.0000
  C   C2        1.0  0.5594022606995195  0.8853565681203949  0.007254218980261831  1.0000
  C   C3        1.0  0.059402260794208094  0.11464343154217596  0.007254218980261831  1.0000
  C   C4        1.0  0.9405977392856326  0.8853565681203949  0.5072542194764863  1.0000
  C   C5        1.0  0.45030527175241447  0.3292319409345727  0.42205143376745385  1.0000
  C   C6        1.0  0.5496947283274262  0.670768058727998  0.9220514342636783  1.0000
  C   C7        1.0  0.049694728152896904  0.3292319409345727  0.9220514342636783  1.0000
  C   C8        1.0  0.9503052716577259  0.670768058727998  0.42205143376745385  1.0000
  C   C9        1.0  0.48606294245623605  0.4018168756728402  0.4211584413300385  1.0000
  C   C10       1.0  0.5139370576236045  0.5981831239897306  0.9211584418262629  1.0000
  C   C11       1.0  0.013937057718293254  0.4018168756728402  0.9211584418262629  1.0000
  C   C12       1.0  0.9860629423615475  0.5981831239897306  0.4211584413300385  1.0000
  C   C13       1.0  0.513562908439375  0.265878955780259  0.5031086509051889  1.0000
  C   C14       1.0  0.4864370916404657  0.7341210438823118  0.003108650408964408  1.0000
  C   C15       1.0  0.9864370918149951  0.265878955780259  0.003108650408964408  1.0000
  C   C16       1.0  0.01356290826484567  0.7341210438823118  0.5031086509051889  1.0000
  C   C17       1.0  0.5030706918122755  0.05132323648108267  0.5874597221154364  1.0000
  C   C18       1.0  0.4969293082675652  0.9486767631814881  0.08745972161921198  1.0000
  C   C19       1.0  0.9969293081728767  0.05132323648108267  0.08745972161921198  1.0000
  C   C20       1.0  0.0030706916377461367  0.9486767631814881  0.5874597221154364  1.0000
  C   C21       1.0  0.46753858027586026  0.976387014875474  0.5892852731596061  1.0000
  C   C22       1.0  0.5324614195347624  0.023612984787096832  0.0892852740208514  1.0000
  C   C23       1.0  0.03246141962945107  0.976387014875474  0.0892852740208514  1.0000
  C   C24       1.0  0.9675385804503897  0.023612984787096832  0.5892852731596061  1.0000
  C   C25       1.0  0.55158065841173  0.34052581920079267  0.4964922227737257  1.0000
  C   C26       1.0  0.44841934166811076  0.6594741804617782  0.9964922232699501  1.0000
  C   C27       1.0  0.9484193415734221  0.34052581920079267  0.9964922232699501  1.0000
  C   C28       1.0  0.051580658506418596  0.6594741804617782  0.4964922227737257  1.0000
  C   C29       1.0  0.5619020987684707  0.5543862308636183  0.40991014875444287  1.0000
  C   C30       1.0  0.438097901042152  0.44561377057841156  0.9099101478931976  1.0000
  C   C31       1.0  0.9380979012166812  0.5543862308636183  0.9099101478931976  1.0000
  C   C32       1.0  0.06190209886315939  0.44561377057841156  0.40991014875444287  1.0000
  C   C33       1.0  0.5976378465139389  0.6242978930618875  0.39918491097368225  1.0000
  C   C34       1.0  0.4023621535659018  0.3757021083801423  0.8991849114699066  1.0000
  C   C35       1.0  0.9023621534712132  0.6242978930618875  0.8991849114699066  1.0000
  C   C36       1.0  0.09763784660862755  0.3757021083801423  0.39918491097368225  1.0000
  C   C37       1.0  0.6242094759521759  0.48061367799024085  0.47646024331979325  1.0000
  C   C38       1.0  0.37579052412766484  0.5193863216723299  0.976460242458548  1.0000
  C   C39       1.0  0.8757905243021942  0.48061367799024085  0.976460242458548  1.0000
  C   C40       1.0  0.12420947577764652  0.5193863216723299  0.47646024331979325  1.0000
  C   C41       1.0  0.6153209426277343  0.26723049946904326  0.5631157835992274  1.0000
  C   C42       1.0  0.3846790571828885  0.7327695001935275  0.063115783103003  1.0000
  C   C43       1.0  0.8846790573574177  0.26723049946904326  0.063115783103003  1.0000
  C   C44       1.0  0.11532094272242288  0.7327695001935275  0.5631157835992274  1.0000
  C   C45       1.0  0.5794005097343117  0.1998992238241215  0.572346092940954  1.0000
  C   C46       1.0  0.4205994900763111  0.8001007776179083  0.0723460924447295  1.0000
  C   C47       1.0  0.9205994902508404  0.1998992238241215  0.0723460924447295  1.0000
  C   C48       1.0  0.07940050982900027  0.8001007776179083  0.572346092940954  1.0000
  C   C49       1.0  0.3034739690196254  0.3645246530063649  0.4321876301512737  1.0000
  C   C50       1.0  0.6965260307909973  0.6354753466562059  0.9321876292900285  1.0000
  C   C51       1.0  0.19652603088568593  0.3645246530063649  0.9321876292900285  1.0000
  C   C52       1.0  0.8034739691941547  0.6354753466562059  0.4321876301512737  1.0000
  C   C53       1.0  0.2791187078114217  0.5072883040499265  0.5218131105133411  1.0000
  C   C54       1.0  0.7208812922684191  0.49271169739210346  0.0218131100171167  1.0000
  C   C55       1.0  0.22088129236310772  0.5072883040499265  0.0218131100171167  1.0000
  C   C56       1.0  0.779118707716733  0.49271169739210346  0.5218131105133411  1.0000
  C   C57       1.0  0.29137330958524166  0.7138063275033206  0.6093525943371719  1.0000
  C   C58       1.0  0.708626690225381  0.2861936721592501  0.10935259384094753  1.0000
  C   C59       1.0  0.20862669032006972  0.7138063275033206  0.10935259384094753  1.0000
  C   C60       1.0  0.791373309759771  0.2861936721592501  0.6093525943371719  1.0000
  C   C61       1.0  0.32820512717516953  0.7694307035227712  0.6039896550839424  1.0000
  C   C62       1.0  0.6717948729046712  0.23056929613979957  0.10398965594518779  1.0000
  C   C63       1.0  0.17179487299935986  0.7694307035227712  0.10398965594518779  1.0000
  C   C64       1.0  0.8282051270804809  0.23056929613979957  0.6039896550839424  1.0000
  C   C65       1.0  0.35159715768873817  0.6205989562997478  0.5129719334357495  1.0000
  C   C66       1.0  0.6484028421218846  0.37940104336282293  0.012971932939525137  1.0000
  C   C67       1.0  0.14840284221657318  0.6205989562997478  0.012971932939525137  1.0000
  C   C68       1.0  0.8515971578632675  0.37940104336282293  0.5129719334357495  1.0000
  C   C69       1.0  0.26660551059372567  0.8654689646374332  0.6989139519030315  1.0000
  C   C70       1.0  0.7333944892168971  0.1345310368045968  0.19891395140680704  1.0000
  C   C71       1.0  0.2333944893115857  0.8654689646374332  0.19891395140680704  1.0000
  C   C72       1.0  0.766605510768255  0.1345310368045968  0.6989139519030315  1.0000
  N   N1        1.0  0.6616286049443064  0.5556337224597684  0.46643990290243925  1.0000
  N   N2        1.0  0.33837139486631634  0.4443662772028024  0.966439902041194  1.0000
  N   N3        1.0  0.8383713950408457  0.5556337224597684  0.966439902041194  1.0000
  N   N4        1.0  0.161628605038995  0.4443662772028024  0.46643990290243925  1.0000
  N   N5        1.0  0.3391411857135828  0.4209698597085528  0.4283126025762003  1.0000
  N   N6        1.0  0.66085881409704  0.579030139954018  0.9283126030724247  1.0000
  N   N7        1.0  0.16085881419172854  0.4209698597085528  0.9283126030724247  1.0000
  N   N8        1.0  0.8391411858881122  0.579030139954018  0.4283126025762003  1.0000
  N   N9        1.0  0.24583368012254214  0.9882737288451098  0.7713508604281449  1.0000
  N   N10       1.0  0.7541663199572985  0.011726270817461028  0.2713508599319206  1.0000
  N   N11       1.0  0.25416632005198725  0.9882737288451098  0.2713508599319206  1.0000
  N   N12       1.0  0.7458336800278536  0.011726270817461028  0.7713508604281449  1.0000
  O   O1        1.0  0.4064015316005995  0.034526041006857855  0.5154932908687466  1.0000
  O   O2        1.0  0.5935984684792412  0.965473958655713  0.01549329037252215  1.0000
  O   O3        1.0  0.09359846857392987  0.034526041006857855  0.01549329037252215  1.0000
  O   O4        1.0  0.9064015315059109  0.965473958655713  0.5154932908687466  1.0000
  O   O5        1.0  0.6688929688240831  0.7399686668561561  0.37957005073668487  1.0000
  O   O6        1.0  0.3311070312557576  0.2600313328064147  0.8795700512329092  1.0000
  O   O7        1.0  0.8311070311610689  0.7399686668561561  0.8795700512329092  1.0000
  O   O8        1.0  0.16889296891877176  0.2600313328064147  0.37957005073668487  1.0000
  O   O9        1.0  0.6847998010659758  0.43050087408965687  0.5434830943551933  1.0000
  O   O10       1.0  0.3152001990138649  0.5694991273523731  0.04348309385896887  1.0000
  O   O11       1.0  0.8152001989191763  0.43050087408965687  0.04348309385896887  1.0000
  O   O12       1.0  0.18479980089144646  0.5694991273523731  0.5434830943551933  1.0000
  O   O13       1.0  0.3612706942914896  0.28283769233293615  0.33769766254997347  1.0000
  O   O14       1.0  0.6387293057883511  0.7171623073296347  0.8376976630461979  1.0000
  O   O15       1.0  0.13872930588303975  0.28283769233293615  0.8376976630461979  1.0000
  O   O16       1.0  0.8612706941968009  0.7171623073296347  0.33769766254997347  1.0000
