data_image0
_chemical_formula_structural       H68C92O24S8Br12
_chemical_formula_sum              "H68 C92 O24 S8 Br12"
_cell_length_a       14.38632329678275
_cell_length_b       9.901429362359785
_cell_length_c       18.116376661353993
_cell_angle_alpha    90.0
_cell_angle_beta     113.43180296827992
_cell_angle_gamma    90.0

_space_group_name_H-M_alt    "P 1"
_space_group_IT_number       1

loop_
  _space_group_symop_operation_xyz
  'x, y, z'

loop_
  _atom_site_type_symbol
  _atom_site_label
  _atom_site_symmetry_multiplicity
  _atom_site_fract_x
  _atom_site_fract_y
  _atom_site_fract_z
  _atom_site_occupancy
  H   H1        1.0  0.6162112621650783  0.530658892540719  0.256015113301463  1.0000
  H   H2        1.0  0.883788737494872  0.030658892659882756  0.24398488658695716  1.0000
  H   H3        1.0  0.38378873792129287  0.4693411072209534  0.7439848865901715  1.0000
  H   H4        1.0  0.11621126259149915  0.9693411071017896  0.7560151133046773  1.0000
  H   H5        1.0  0.19761208268377972  0.8533899036963067  0.9530876001332158  1.0000
  H   H6        1.0  0.3023879171334283  0.35338990381547053  0.5469123997606739  1.0000
  H   H7        1.0  0.8023879167070073  0.1466100970753208  0.04691239975745933  1.0000
  H   H8        1.0  0.6976120829529429  0.646610096956157  0.4530876001309608  1.0000
  H   H9        1.0  0.34987637332905674  0.29541793542653494  0.0029541229051729947  1.0000
  H   H10       1.0  0.15012362636633672  0.7954179353073711  0.49704587704016456  1.0000
  H   H11       1.0  0.6501236267573143  0.7045820643351374  0.9970458769864614  1.0000
  H   H12       1.0  0.8498763737200346  0.2045820644543012  0.50295412285147  1.0000
  H   H13       1.0  0.323941532639449  0.5432577169563353  0.4020978730646903  1.0000
  H   H14       1.0  0.1760584673560923  0.0432577170754992  0.09790212748224462  1.0000
  H   H15       1.0  0.67605846774707  0.45674228280533696  0.5979021274285417  1.0000
  H   H16       1.0  0.8239415330304268  0.956742282686173  0.9020978730109874  1.0000
  H   H17       1.0  0.26309337053163245  0.4696507322142553  0.05244694844158664  1.0000
  H   H18       1.0  0.23690662985934524  0.9696507320950913  0.4475530515047104  1.0000
  H   H19       1.0  0.7369066295547387  0.530349267547417  0.947553051450048  1.0000
  H   H20       1.0  0.763093370227026  0.030349267666580845  0.5524469483869242  1.0000
  H   H21       1.0  0.3687224841912205  0.27136880158074755  0.2838210667544679  1.0000
  H   H22       1.0  0.13127751550417294  0.7713688014615837  0.21617893319086962  1.0000
  H   H23       1.0  0.6312775151995664  0.7286311981809248  0.7161789331362072  1.0000
  H   H24       1.0  0.8687224845821983  0.2286311983000886  0.7838210667007649  1.0000
  H   H25       1.0  0.44962482944861176  0.09288781915632478  0.2333322266345285  1.0000
  H   H26       1.0  0.05037517024678171  0.5928878190371609  0.266667773310809  1.0000
  H   H27       1.0  0.5503751699421753  0.9071121816153027  0.7666677732561467  1.0000
  H   H28       1.0  0.9496248298395894  0.40711218173446656  0.7333322265808255  1.0000
  H   H29       1.0  0.3225004687175191  0.7721076624615734  0.9005207025531082  1.0000
  H   H30       1.0  0.17749953139983668  0.27210766258073715  0.5994792979423786  1.0000
  H   H31       1.0  0.6774995316689998  0.22789233730009897  0.09947929794012371  1.0000
  H   H32       1.0  0.8225004689866824  0.7278923381908904  0.4005207025508533  1.0000
  H   H33       1.0  0.22968834735440471  0.817267455420338  0.09741970930627149  1.0000
  H   H34       1.0  0.27031165234098875  0.31726745553950175  0.4025802906390661  1.0000
  H   H35       1.0  0.7703116520363822  0.18273254434133443  0.9025802905844036  1.0000
  H   H36       1.0  0.7296883480455303  0.6827325442221706  0.5974197098541659  1.0000
  H   H37       1.0  0.4774265793191803  0.6479458232958587  0.9916387508689041  1.0000
  H   H38       1.0  0.02257342049802766  0.14794582341502255  0.5083612490249855  1.0000
  H   H39       1.0  0.5225734200716067  0.3520541764658136  0.008361249021771038  1.0000
  H   H40       1.0  0.9774265795883436  0.8520541763466497  0.49163875086664904  1.0000
  H   H41       1.0  0.5470717660688281  0.8431890845717506  0.536382168191292  1.0000
  H   H42       1.0  0.9529282340130842  0.3431890846909145  0.9636178322472775  1.0000
  H   H43       1.0  0.45292823362210666  0.15681091518992163  0.4636178323009804  1.0000
  H   H44       1.0  0.04707176607328683  0.6568109150707577  0.036382167644357144  1.0000
  H   H45       1.0  0.8834576722252607  0.44942209827970336  0.2667610976488865  1.0000
  H   H46       1.0  0.6165423274346894  0.9494220981605395  0.2332389022395336  1.0000
  H   H47       1.0  0.11654232786111036  0.550577901481969  0.7332389022427481  1.0000
  H   H48       1.0  0.38345767195609753  0.05057790160113277  0.7667610976511414  1.0000
  H   H49       1.0  0.7579522319540786  0.4165783463224106  0.19120025831980172  1.0000
  H   H50       1.0  0.7420477680060193  0.9165783462032469  0.3087997421702157  1.0000
  H   H51       1.0  0.24204776843244044  0.5834216544492169  0.8087997421734302  1.0000
  H   H52       1.0  0.2579522323804995  0.0834216545683807  0.6912002583230161  1.0000
  H   H53       1.0  0.845112426758283  0.2794711196465586  0.23729758743098303  1.0000
  H   H54       1.0  0.6548875729016671  0.7794711195273948  0.2627024124574371  1.0000
  H   H55       1.0  0.15488757332808809  0.7205288801151136  0.7627024124606515  1.0000
  H   H56       1.0  0.34511242648911983  0.22052888023427755  0.737297587433238  1.0000
  H   H57       1.0  0.6368206126523096  0.22681679460719406  0.31692498333616664  1.0000
  H   H58       1.0  0.8631793873077884  0.7268167944880303  0.18307501715385086  1.0000
  H   H59       1.0  0.3631793870386252  0.7731832051544782  0.6830750171561059  1.0000
  H   H60       1.0  0.1368206130787306  0.2731832052736421  0.816924983339381  1.0000
  H   H61       1.0  0.7151592212558281  0.15468849031257123  0.27051846166293647  1.0000
  H   H62       1.0  0.7848407793998542  0.6546884901934074  0.22948153882804045  1.0000
  H   H63       1.0  0.2848407791306909  0.8453115104590563  0.7294815388302954  1.0000
  H   H64       1.0  0.21515922098666493  0.3453115095682649  0.7705184616651916  1.0000
  H   H65       1.0  0.6227554978126983  0.28327464928069057  0.2185168220193009  1.0000
  H   H66       1.0  0.877244501847252  0.7832746491615268  0.28148317786911925  1.0000
  H   H67       1.0  0.3772445015780886  0.7167253504809817  0.7814831778713741  1.0000
  H   H68       1.0  0.12275549823911933  0.21672535060014556  0.7185168220225153  1.0000
  C   C1        1.0  0.38881624748190013  0.6636113291863166  0.3341486857930396  1.0000
  C   C2        1.0  0.11118375290907752  0.16361132930548045  0.16585131415325743  1.0000
  C   C3        1.0  0.611183752604471  0.3363886705753557  0.665851314098595  1.0000
  C   C4        1.0  0.8888162471772936  0.8363886704561918  0.8341486857383772  1.0000
  C   C5        1.0  0.2653715497316027  0.7999617449285386  0.9925739699059556  1.0000
  C   C6        1.0  0.2346284500856052  0.29996174504770234  0.507426029987934  1.0000
  C   C7        1.0  0.7346284503547685  0.20003825483313378  0.007426029985678964  1.0000
  C   C8        1.0  0.7653715493051817  0.70003825471397  0.49257396990274116  1.0000
  C   C9        1.0  0.45817832877294057  0.7669257883985167  0.3384617397161815  1.0000
  C   C10       1.0  0.04182167161803711  0.2669257885176805  0.16153826023011555  1.0000
  C   C11       1.0  0.5418216716135784  0.23307421136315565  0.6615382607770505  1.0000
  C   C12       1.0  0.9581783284683342  0.7330742112439919  0.838461739661519  1.0000
  C   C13       1.0  0.3533635904635617  0.29055342867328765  0.06412267693881542  1.0000
  C   C14       1.0  0.14663640923183177  0.790553429564079  0.4358773230065221  1.0000
  C   C15       1.0  0.6466364089272253  0.7094465710883847  0.9358773229518597  1.0000
  C   C16       1.0  0.8533635908545393  0.20944657120754848  0.5641226768851124  1.0000
  C   C17       1.0  0.3772655581783948  0.6220484189296988  0.4039116375289746  1.0000
  C   C18       1.0  0.1227344415169987  0.12204841904886266  0.09608836241636297  1.0000
  C   C19       1.0  0.6227344419079764  0.3779515808319735  0.59608836236266  1.0000
  C   C20       1.0  0.8772655585693724  0.8779515807128098  0.9039116374752716  1.0000
  C   C21       1.0  0.4051871710636991  0.18603548362445685  0.1159648992708125  1.0000
  C   C22       1.0  0.09481282863169428  0.686035483505293  0.384035100674525  1.0000
  C   C23       1.0  0.5948128286272356  0.8139645171471707  0.88403510122146  1.0000
  C   C24       1.0  0.9051871714546769  0.3139645172663345  0.6159648992171095  1.0000
  C   C25       1.0  0.5141121040054649  0.8340808228552317  0.40963619886426844  1.0000
  C   C26       1.0  0.9858878959546331  0.3340808229743954  0.09036380162574906  1.0000
  C   C27       1.0  0.4858878963810541  0.16591917791639593  0.5903638016289635  1.0000
  C   C28       1.0  0.014112103736301607  0.6659191777972321  0.9096361988665234  1.0000
  C   C29       1.0  0.30573132181356866  0.38858074922255803  0.09197939248008968  1.0000
  C   C30       1.0  0.1942686785774091  0.8885807491033941  0.40802060746620733  1.0000
  C   C31       1.0  0.6942686782728026  0.6114192505391143  0.908020607411545  1.0000
  C   C32       1.0  0.80573132180911  0.11141925065827815  0.5919793930270246  1.0000
  C   C33       1.0  0.387976121226776  0.7072371931087607  0.2106435066152438  1.0000
  C   C34       1.0  0.11202387846861744  0.2072371922179693  0.2893564933300938  1.0000
  C   C35       1.0  0.6120238788595951  0.29276280766286683  0.7893564932763908  1.0000
  C   C36       1.0  0.8879761209221696  0.792762807543703  0.7106435065605814  1.0000
  C   C37       1.0  0.36498046378988036  0.2768564395784043  0.22266763931745104  1.0000
  C   C38       1.0  0.13501953590551316  0.7768564394592404  0.2773323606278865  1.0000
  C   C39       1.0  0.6350195362964909  0.7231435611932232  0.7773323605741835  1.0000
  C   C40       1.0  0.8649804644810059  0.22314356030243185  0.7226676398653454  1.0000
  C   C41       1.0  0.4428687665099699  0.669065129645196  0.09560092578282067  1.0000
  C   C42       1.0  0.05713123318542354  0.16906512976435986  0.40439907416251686  1.0000
  C   C43       1.0  0.5571312335764013  0.3309348701164763  0.9043990741088139  1.0000
  C   C44       1.0  0.9428687669009477  0.8309348699973124  0.5956009257291177  1.0000
  C   C45       1.0  0.5387806253430633  0.5981803336915815  0.14631584021190883  1.0000
  C   C46       1.0  0.9612193743168868  0.09818033381074544  0.35368415967651123  1.0000
  C   C47       1.0  0.4612193747433078  0.40181966607009073  0.8536841596797257  1.0000
  C   C48       1.0  0.038780625769484316  0.9018196659509269  0.6463158402151232  1.0000
  C   C49       1.0  0.3431176187223543  0.6288012479963968  0.2498569994420272  1.0000
  C   C50       1.0  0.15688238127318702  0.12880124811556062  0.2501430011049077  1.0000
  C   C51       1.0  0.6568823816641648  0.3711987517652755  0.7501430010512048  1.0000
  C   C52       1.0  0.8431176191133318  0.8711987526560668  0.7498569993883242  1.0000
  C   C53       1.0  0.31207768517350526  0.3808879588978037  0.1708557556121789  1.0000
  C   C54       1.0  0.18792231521747244  0.8808879587786398  0.32914424433411815  1.0000
  C   C55       1.0  0.6879223149128659  0.6191120418738238  0.8291442442794558  1.0000
  C   C56       1.0  0.8120776848688986  0.1191120409830325  0.6708557555575164  1.0000
  C   C57       1.0  0.4111876121939867  0.17728657204515388  0.19469668700964068  1.0000
  C   C58       1.0  0.08881238780155455  0.6772865729359452  0.3053033135372942  1.0000
  C   C59       1.0  0.5888123881925323  0.8227134277165185  0.8053033134835913  1.0000
  C   C60       1.0  0.9111876118893802  0.32271342783568224  0.6946966869549782  1.0000
  C   C61       1.0  0.37215688164766236  0.7174699308572278  0.12569257183653343  1.0000
  C   C62       1.0  0.1278431180477311  0.21746993097639164  0.37430742810880413  1.0000
  C   C63       1.0  0.6278431184387087  0.2825300689044445  0.8743074280551011  1.0000
  C   C64       1.0  0.872156882338788  0.7825300687852806  0.6256925723844278  1.0000
  C   C65       1.0  0.4365685867360975  0.6872918314066666  0.47503645548715123  1.0000
  C   C66       1.0  0.06343141325944379  0.1872918315258305  0.024963545059783643  1.0000
  C   C67       1.0  0.5634314136504216  0.31270816835500564  0.5249635450060807  1.0000
  C   C68       1.0  0.9365685864314909  0.8127081682358419  0.9750364554324887  1.0000
  C   C69       1.0  0.33553024054320685  0.7534896828493787  0.9630665620784191  1.0000
  C   C70       1.0  0.16446975996958527  0.2534896829685425  0.5369334378164298  1.0000
  C   C71       1.0  0.6644697595431643  0.24651031691229364  0.0369334378132153  1.0000
  C   C72       1.0  0.8355302401167859  0.7465103167931297  0.4630665620752048  1.0000
  C   C73       1.0  0.2832554291904399  0.7808195652427937  0.07329343081158267  1.0000
  C   C74       1.0  0.21674457120053775  0.2808195653619576  0.4267065691347144  1.0000
  C   C75       1.0  0.7167445708959312  0.21918043451887856  0.9267065690800519  1.0000
  C   C76       1.0  0.7832554288858333  0.7191804343997147  0.5732934307569202  1.0000
  C   C77       1.0  0.42287827270707  0.6873641936862709  0.014018696801495908  1.0000
  C   C78       1.0  0.07712172768390757  0.18736419279547947  0.48598130314480104  1.0000
  C   C79       1.0  0.5771217273793011  0.31263580708535665  0.9859813030901385  1.0000
  C   C80       1.0  0.9228782724024636  0.8126358069661928  0.5140186967468334  1.0000
  C   C81       1.0  0.5040901585453648  0.7927564215970193  0.47970411864787893  1.0000
  C   C82       1.0  0.9959098421103174  0.2927564217161832  0.020295881843098034  1.0000
  C   C83       1.0  0.49590984184115416  0.20724357816465297  0.520295881845353  1.0000
  C   C84       1.0  0.004090158276201547  0.7072435780454891  0.9797041186501338  1.0000
  C   C85       1.0  0.8191310791698116  0.3797616417175393  0.24623767335519298  1.0000
  C   C86       1.0  0.6808689204901385  0.8797616415983756  0.2537623265332271  1.0000
  C   C87       1.0  0.1808689202209753  0.620238358044133  0.7537623265354821  1.0000
  C   C88       1.0  0.3191310795962327  0.12023835816329688  0.7462376733584075  1.0000
  C   C89       1.0  0.6760760695760094  0.24593570088547745  0.277088181920584  1.0000
  C   C90       1.0  0.8239239303840886  0.7459357007663137  0.2229118185694335  1.0000
  C   C91       1.0  0.3239239301149253  0.75406429988615  0.7229118185716884  1.0000
  C   C92       1.0  0.17607607000243045  0.2540643000053139  0.7770881819237984  1.0000
  O   O1        1.0  0.4582666821613904  0.7926093690910917  0.2640196760785527  1.0000
  O   O2        1.0  0.04173331822958727  0.2926093692102556  0.23598032386774434  1.0000
  O   O3        1.0  0.5417333179249808  0.20739063067058056  0.7359803238130819  1.0000
  O   O4        1.0  0.9582666818567839  0.7073906315613719  0.7640196760238902  1.0000
  O   O5        1.0  0.16900350562364982  0.5619810823630261  0.1373692943098254  1.0000
  O   O6        1.0  0.3309964940717436  0.06198108248219003  0.36263070563551214  1.0000
  O   O7        1.0  0.8309964944627214  0.4380189173986461  0.8626307055818092  1.0000
  O   O8        1.0  0.6690035053190432  0.9380189172794823  0.637369294255163  1.0000
  O   O9        1.0  0.543249679908637  0.5606735953804685  0.21830548563268626  1.0000
  O   O10       1.0  0.9567503197513132  0.060673595499632325  0.28169451425573383  1.0000
  O   O11       1.0  0.4567503194821499  0.43932640539115897  0.7816945142579887  1.0000
  O   O12       1.0  0.04324968033505797  0.9393264052719952  0.7183054856359007  1.0000
  O   O13       1.0  0.23020227976366847  0.44620756138455614  0.27140844409117004  1.0000
  O   O14       1.0  0.2697977209274571  0.9462075612653922  0.22859155645672435  1.0000
  O   O15       1.0  0.7697977206228506  0.5537924383771161  0.7285915564020619  1.0000
  O   O16       1.0  0.7302022794590619  0.053792438496280036  0.7714084440365075  1.0000
  O   O17       1.0  0.6077546845039266  0.5776822305821908  0.12326482881577965  1.0000
  O   O18       1.0  0.8922453161517556  0.07768223070135469  0.37673517167519727  1.0000
  O   O19       1.0  0.3922453158825924  0.42231776917948144  0.8767351716774522  1.0000
  O   O20       1.0  0.10775468423476335  0.9223177690603176  0.6232648288180347  1.0000
  O   O21       1.0  0.7178769450945748  0.5043037482024668  0.32178305787819667  1.0000
  O   O22       1.0  0.7821230545653755  0.004303748321630613  0.1782169420102235  1.0000
  O   O23       1.0  0.2821230549917966  0.4956962515592056  0.678216942013438  1.0000
  O   O24       1.0  0.2178769455209956  0.9956962524499968  0.821783057881411  1.0000
  S   S1        1.0  0.25120680598261064  0.5047812176492491  0.20629411502001094  1.0000
  S   S2        1.0  0.24879319440836706  0.004781217768412918  0.29370588492628613  1.0000
  S   S3        1.0  0.7487931941037606  0.4952187831223784  0.7937058848716236  1.0000
  S   S4        1.0  0.7512068059781519  0.9952187830032145  0.7062941155669459  1.0000
  S   S5        1.0  0.7725658686754917  0.3704858940816332  0.32480795047299466  1.0000
  S   S6        1.0  0.7274341309844584  0.8704858939624692  0.1751920494154255  1.0000
  S   S7        1.0  0.22743413141087943  0.6295141056800391  0.67519204941864  1.0000
  S   S8        1.0  0.2725658691019127  0.12951410579920297  0.824807950476209  1.0000
  Br  Br1       1.0  0.5964246411423613  0.9827871677792622  0.40896847525279867  1.0000
  Br  Br2       1.0  0.9035753592131732  0.48278716789842613  0.09103152463658097  1.0000
  Br  Br3       1.0  0.4035753589440099  0.017212831982410005  0.5910315246388359  1.0000
  Br  Br4       1.0  0.09642464087319796  0.5172128318632462  0.9089684752550536  1.0000
  Br  Br5       1.0  0.4231391136534049  0.6304250499154531  0.5711584983737671  1.0000
  Br  Br6       1.0  0.07686088616380309  0.1304250500346169  0.9288415015201225  1.0000
  Br  Br7       1.0  0.5768608864329664  0.36957494984621925  0.42884150151786754  1.0000
  Br  Br8       1.0  0.923139113922568  0.8695749497270554  0.07115849837151206  1.0000
  Br  Br9       1.0  0.4685888179757901  0.05087171978571321  0.07771687987048469  1.0000
  Br  Br10      1.0  0.03141118171960339  0.5508717196665494  0.42228312007485286  1.0000
  Br  Br11      1.0  0.5314111821105811  0.9491282809859142  0.92228312002115  1.0000
  Br  Br12      1.0  0.9685888176711834  0.4491282811050782  0.5777168798158222  1.0000
