data_image0
_chemical_formula_structural       H70C52N8O6S4Br2
_chemical_formula_sum              "H70 C52 N8 O6 S4 Br2"
_cell_length_a       10.337292143491023
_cell_length_b       10.51398536499446
_cell_length_c       12.910902614950405
_cell_angle_alpha    86.2319067011876
_cell_angle_beta     86.64808048796164
_cell_angle_gamma    85.48992751382599

_space_group_name_H-M_alt    "P 1"
_space_group_IT_number       1

loop_
  _space_group_symop_operation_xyz
  'x, y, z'

loop_
  _atom_site_type_symbol
  _atom_site_label
  _atom_site_symmetry_multiplicity
  _atom_site_fract_x
  _atom_site_fract_y
  _atom_site_fract_z
  _atom_site_occupancy
  H   H1        1.0  0.20176091394901988  0.28148457810759103  0.36548180767401073  1.0000
  H   H2        1.0  0.7982390861405559  0.7185154219501706  0.6345181921907707  1.0000
  H   H3        1.0  0.3107547585845922  0.14232416454465024  0.38365865851324155  1.0000
  H   H4        1.0  0.6892452415049836  0.8576758355131113  0.6163413413515397  1.0000
  H   H5        1.0  0.47576727698608257  0.8771079337711183  0.03122557911143445  1.0000
  H   H6        1.0  0.5242327231034933  0.12289206628664336  0.968774420753347  1.0000
  H   H7        1.0  0.3810244548839446  0.9261265624983547  0.9237257589248211  1.0000
  H   H8        1.0  0.6189755452056314  0.07387343755940681  0.07627424093996021  1.0000
  H   H9        1.0  0.38562962388548366  0.7651028743596698  0.9745814657257572  1.0000
  H   H10       1.0  0.6143703762040922  0.23489712569809185  0.02541853413902413  1.0000
  H   H11       1.0  0.2853663210225608  0.9968234398628429  0.26079836486335994  1.0000
  H   H12       1.0  0.7146336790670151  0.0031765601949185727  0.7392016350014214  1.0000
  H   H13       1.0  0.1397772795036609  0.7674865372213264  0.01107110654024044  1.0000
  H   H14       1.0  0.860222720585915  0.2325134628364352  0.9889288933245409  1.0000
  H   H15       1.0  0.11893522458259571  0.9261161261012258  0.9552306980230928  1.0000
  H   H16       1.0  0.8810647755832965  0.07388387300239971  0.04476930184259311  1.0000
  H   H17       1.0  0.056635101657936164  0.8895837636849235  0.08369169400306456  1.0000
  H   H18       1.0  0.9433648984316398  0.11041623637283804  0.9163083058617167  1.0000
  H   H19       1.0  0.2068860601033735  0.8222090931826186  0.22901761104347718  1.0000
  H   H20       1.0  0.7931139399862024  0.17779090687514307  0.7709823888213042  1.0000
  H   H21       1.0  0.3787880260702915  0.8199583098011387  0.20461941410139137  1.0000
  H   H22       1.0  0.6212119740192844  0.18004169025662273  0.7953805857633901  1.0000
  H   H23       1.0  0.2886237050449807  0.7077683332166917  0.14858921038054496  1.0000
  H   H24       1.0  0.7113762950445951  0.2922316668410698  0.8514107894842362  1.0000
  H   H25       1.0  0.2745059121268692  0.39269469121294087  0.16370582978401677  1.0000
  H   H26       1.0  0.7254940879627068  0.6073053088448208  0.8362941700807646  1.0000
  H   H27       1.0  0.18746769934751054  0.5329125560969914  0.05953643147148302  1.0000
  H   H28       1.0  0.8125323006893901  0.46708744390317497  0.9404635691706316  1.0000
  H   H29       1.0  0.258668364611564  0.5824366499909963  0.9367619638633714  1.0000
  H   H30       1.0  0.7413316354780118  0.41756335006676526  0.06323803600140983  1.0000
  H   H31       1.0  0.35912393142315396  0.5110069854879129  0.03462554820054337  1.0000
  H   H32       1.0  0.6408760686664218  0.4889930145698487  0.965374451664238  1.0000
  H   H33       1.0  0.35411168377116964  0.43962580331991996  0.8140901974057815  1.0000
  H   H34       1.0  0.6458883163184062  0.5603741967378417  0.18590980245899993  1.0000
  H   H35       1.0  0.3634778353950167  0.2718551015764086  0.832463926201561  1.0000
  H   H36       1.0  0.6365221646945592  0.7281448984813531  0.1675360736632205  1.0000
  H   H37       1.0  0.4547408319965148  0.3607389676814121  0.9092172601027672  1.0000
  H   H38       1.0  0.5452591680403859  0.6392610323187544  0.09078274053934728  1.0000
  H   H39       1.0  0.039052897682244334  0.40238302656631336  0.9747678170291685  1.0000
  H   H40       1.0  0.9609471024073315  0.5976169734914483  0.0252321828356129  1.0000
  H   H41       1.0  0.09115410881397493  0.30056959413360934  0.8752923431895634  1.0000
  H   H42       1.0  0.9088458912756009  0.6994304059241523  0.12470765667521794  1.0000
  H   H43       1.0  0.10326468506871406  0.4679146896392438  0.8535301845896103  1.0000
  H   H44       1.0  0.8967353150208619  0.5320853104185178  0.14646981527517097  1.0000
  H   H45       1.0  0.7896152681774896  0.4596205761849441  0.3266464806971465  1.0000
  H   H46       1.0  0.21038473191208631  0.5403794238728175  0.6733535191676349  1.0000
  H   H47       1.0  0.7659688711784339  0.07821754376247723  0.22440909894964256  1.0000
  H   H48       1.0  0.2340311289111419  0.9217824562952845  0.7755909009151388  1.0000
  H   H49       1.0  0.5267446865479556  0.09322786691407413  0.26224290241408604  1.0000
  H   H50       1.0  0.4732553135416202  0.9067721331436874  0.7377570974506953  1.0000
  H   H51       1.0  0.6444544203360233  0.7962001447045541  0.3776441372261655  1.0000
  H   H52       1.0  0.35554557975355255  0.20379985535320755  0.6223558626386159  1.0000
  H   H53       1.0  0.5872067132993045  0.9395151592628318  0.43321627909799004  1.0000
  H   H54       1.0  0.4127932857702584  0.06048484073729413  0.5667837215437095  1.0000
  H   H55       1.0  0.33972920533036227  0.6553786101415577  0.41854369783869705  1.0000
  H   H56       1.0  0.6602707947065384  0.3446213898586088  0.5814563028034175  1.0000
  H   H57       1.0  0.2285868259451979  0.17243521095548173  0.866268869865661  1.0000
  H   H58       1.0  0.7714131741443779  0.82756478910228  0.1337311299991204  1.0000
  H   H59       1.0  0.02475977668348767  0.4388417605234199  0.649507032589037  1.0000
  H   H60       1.0  0.9752402234060883  0.5611582395343419  0.3504929672757444  1.0000
  H   H61       1.0  0.930272780841204  0.35640872641906934  0.5685357115340819  1.0000
  H   H62       1.0  0.06972721924837197  0.6435912736386924  0.4314642883306995  1.0000
  H   H63       1.0  0.10314170800585278  0.3645860723375855  0.5375510371587156  1.0000
  H   H64       1.0  0.8968582920837231  0.6354139277201761  0.4624489627060658  1.0000
  H   H65       1.0  0.06714064815875757  0.005855891189950196  0.6219047939329458  1.0000
  H   H66       1.0  0.9328593519308184  0.9941441088678112  0.3780952059318354  1.0000
  H   H67       1.0  0.11769290666302523  0.11989496498983665  0.5195780942847468  1.0000
  H   H68       1.0  0.8823070934265507  0.8801050350679249  0.48042190558003445  1.0000
  H   H69       1.0  0.9470431278496737  0.1117959086873039  0.5584583211936882  1.0000
  H   H70       1.0  0.05295687223990228  0.8882040913704577  0.44154167867109306  1.0000
  C   C1        1.0  0.2911712869002739  0.2304724942951961  0.3342899110637151  1.0000
  C   C2        1.0  0.7088287122219644  0.769527505762525  0.6657100888006512  1.0000
  C   C3        1.0  0.4493298095051344  0.8124274768781063  0.42829153260180564  1.0000
  C   C4        1.0  0.5506701905844414  0.1875725231796555  0.5717084672629756  1.0000
  C   C5        1.0  0.38422285492385083  0.8648878614181067  0.9953468763304466  1.0000
  C   C6        1.0  0.6157771451130498  0.13511213858205984  0.004653124311667958  1.0000
  C   C7        1.0  0.267604496532244  0.8966612650161017  0.07175351546820846  1.0000
  C   C8        1.0  0.732395503557332  0.10333873504166005  0.9282464843965728  1.0000
  C   C9        1.0  0.26469098710779027  0.03774011670155894  0.0964093587636579  1.0000
  C   C10       1.0  0.7353090129817855  0.9622598833562026  0.9035906411011233  1.0000
  C   C11       1.0  0.2769811887521671  0.07113521762804878  0.198121023020161  1.0000
  C   C12       1.0  0.7230188113374088  0.9288647824297128  0.8018789768446203  1.0000
  C   C13       1.0  0.27897426419004  0.19786123911947168  0.22331386811168585  1.0000
  C   C14       1.0  0.721025735899536  0.80213876093829  0.7766861317530955  1.0000
  C   C15       1.0  0.37491688307665233  0.43822480452912693  0.37378845541647276  1.0000
  C   C16       1.0  0.6250831170129235  0.5617751955286348  0.6262115444483085  1.0000
  C   C17       1.0  0.5062641178863332  0.4901818014873293  0.3664767861749705  1.0000
  C   C18       1.0  0.4937358822032427  0.5098181985704323  0.6335232136898108  1.0000
  C   C19       1.0  0.13812462396272882  0.868849334170104  0.027256617388192312  1.0000
  C   C20       1.0  0.8618753761268471  0.13115066588765784  0.9727433824765889  1.0000
  C   C21       1.0  0.2864687937938018  0.8074255909527114  0.1697946329834283  1.0000
  C   C22       1.0  0.7135312063720906  0.1925744081509142  0.8302053668822575  1.0000
  C   C23       1.0  0.25247946897891665  0.13830171306372774  0.01770645155037251  1.0000
  C   C24       1.0  0.7475205311106593  0.8616982869940338  0.9822935483144087  1.0000
  C   C25       1.0  0.25782475275607325  0.26799357185634354  0.04049235421220253  1.0000
  C   C26       1.0  0.7421752474098191  0.7320064272472822  0.9595076456534835  1.0000
  C   C27       1.0  0.2708430876128885  0.2940211153583221  0.14393559008603304  1.0000
  C   C28       1.0  0.7291569124766873  0.7059788846994396  0.8560644097787483  1.0000
  C   C29       1.0  0.24929135146256232  0.3779059441276605  0.9565894751344638  1.0000
  C   C30       1.0  0.7507086486270135  0.6220940559301013  0.04341052473031744  1.0000
  C   C31       1.0  0.26449435182002495  0.5080063823038689  0.00047020432479976233  1.0000
  C   C32       1.0  0.7355056473022131  0.4919936177538522  0.9995297955395666  1.0000
  C   C33       1.0  0.3611683595175294  0.360213370338568  0.8731466638225945  1.0000
  C   C34       1.0  0.6388316405720464  0.6397866297191936  0.12685333604218682  1.0000
  C   C35       1.0  0.1133772976766587  0.386957612825277  0.9116408952199053  1.0000
  C   C36       1.0  0.8866227024129172  0.6130423872324846  0.08835910464487598  1.0000
  C   C37       1.0  0.5258682324475544  0.2837700796330994  0.31649245777709084  1.0000
  C   C38       1.0  0.47413176771833787  0.7162299194705263  0.683507542088595  1.0000
  C   C39       1.0  0.5987617386819889  0.3881980662195878  0.3330053377877539  1.0000
  C   C40       1.0  0.40123826140758695  0.6118019338381738  0.6669946620770274  1.0000
  C   C41       1.0  0.7330301125228945  0.37972136607965634  0.31346659567931934  1.0000
  C   C42       1.0  0.26696988756668144  0.6202786339781053  0.6865334041854619  1.0000
  C   C43       1.0  0.790640300510782  0.26624974053746725  0.2752238925082832  1.0000
  C   C44       1.0  0.2093596995787938  0.7337502595202945  0.7247761073564982  1.0000
  C   C45       1.0  0.7183208437278265  0.16415394780113  0.2564563740936225  1.0000
  C   C46       1.0  0.28167915630907425  0.8358460521990364  0.7435436265484922  1.0000
  C   C47       1.0  0.5836275543154269  0.17202341353295353  0.2776011181114941  1.0000
  C   C48       1.0  0.4163724448068113  0.8279765865247677  0.722398881752872  1.0000
  C   C49       1.0  0.02651393910797378  0.35795095652413517  0.5998803621737647  1.0000
  C   C50       1.0  0.9734860609816022  0.6420490435336265  0.4001196376910167  1.0000
  C   C51       1.0  0.04691456086467483  0.1014863718590055  0.5844739394423917  1.0000
  C   C52       1.0  0.9530854382048881  0.8985136281411203  0.41552606119930774  1.0000
  N   N1        1.0  0.5321054750595922  0.606810362383666  0.38199186501228644  1.0000
  N   N2        1.0  0.4678945250299837  0.39318963767409565  0.6180081348524948  1.0000
  N   N3        1.0  0.4316993151580234  0.6875537318313483  0.409039512073706  1.0000
  N   N4        1.0  0.5683006849315526  0.31244626822641336  0.5909604877910754  1.0000
  N   N5        1.0  0.39402185822882374  0.3147790346772759  0.34371193959219604  1.0000
  N   N6        1.0  0.6059781418607522  0.6852209653804857  0.6562880602725851  1.0000
  N   N7        1.0  0.5686865136618664  0.850940749286578  0.41177444231267035  1.0000
  N   N8        1.0  0.43131348642770945  0.14905925077118373  0.5882255575521109  1.0000
  O   O1        1.0  0.26902332689590575  0.49493710646676464  0.40099121239558155  1.0000
  O   O2        1.0  0.7309766731936701  0.505062893590997  0.5990087874691997  1.0000
  O   O3        1.0  0.2372464158054198  0.10169114205520516  0.9194014394562601  1.0000
  O   O4        1.0  0.7627535842841561  0.8983088580025564  0.08059856040852124  1.0000
  O   O5        1.0  0.1993573829448063  0.20934457078553095  0.7084097748991984  1.0000
  O   O6        1.0  0.8006426171447695  0.7906554292722308  0.291590224965583  1.0000
  S   S1        1.0  0.31773913134240556  0.9018634439256906  0.47141453474853456  1.0000
  S   S2        1.0  0.6822608687471703  0.09813655613207106  0.5285854651162467  1.0000
  S   S3        1.0  0.05779026556649581  0.21450940694107912  0.6818273265057251  1.0000
  S   S4        1.0  0.9422097345230801  0.7854905931166826  0.31817267335905625  1.0000
  Br  Br1       1.0  0.9737273912677454  0.2507747385274464  0.24498630249165065  1.0000
  Br  Br2       1.0  0.02627260882183054  0.7492252615303151  0.7550136973731306  1.0000
