data_image0
_chemical_formula_structural       H10C32F10
_chemical_formula_sum              "H10 C32 F10"
_cell_length_a       7.257160496027591
_cell_length_b       7.439058684670929
_cell_length_c       11.86929240970122
_cell_angle_alpha    100.51931048494247
_cell_angle_beta     92.20552641474433
_cell_angle_gamma    109.63418078276568

_space_group_name_H-M_alt    "P 1"
_space_group_IT_number       1

loop_
  _space_group_symop_operation_xyz
  'x, y, z'

loop_
  _atom_site_type_symbol
  _atom_site_label
  _atom_site_symmetry_multiplicity
  _atom_site_fract_x
  _atom_site_fract_y
  _atom_site_fract_z
  _atom_site_occupancy
  H   H1        1.0  0.1274677335435961  0.047717548129667546  0.9353731855748836  1.0000
  H   H2        1.0  0.8725322665553098  0.9522824521356497  0.06462681512170783  1.0000
  H   H3        1.0  0.09925281991777427  0.25574373733203404  0.8003708120894614  1.0000
  H   H4        1.0  0.9007471796671613  0.7442562614742249  0.19962918843056954  1.0000
  H   H5        1.0  0.9290787192153598  0.10539399299655126  0.6019854670973609  1.0000
  H   H6        1.0  0.0709212808868818  0.8946060072644639  0.39801453275631554  1.0000
  H   H7        1.0  0.7859654938777518  0.7433015147331244  0.5396667301303092  1.0000
  H   H8        1.0  0.21403450622448972  0.25669848552789076  0.4603332697233671  1.0000
  H   H9        1.0  0.8056522010426191  0.5333927739216815  0.6772703916272854  1.0000
  H   H10       1.0  0.19434779854565204  0.46660722488027545  0.3227296080498305  1.0000
  C   C1        1.0  0.5454562983730956  0.9595064657548994  0.8305445561976151  1.0000
  C   C2        1.0  0.4545437017258104  0.04049353451041794  0.16945544449897637  1.0000
  C   C3        1.0  0.5227779871651008  0.07054182036185458  0.7524109264889963  1.0000
  C   C4        1.0  0.47722201293714084  0.9294581798991607  0.24758907336468  1.0000
  C   C5        1.0  0.40948376579481793  0.9786574067185885  0.6469747738317206  1.0000
  C   C6        1.0  0.5905162343074237  0.021342593542426697  0.35302522602195563  1.0000
  C   C7        1.0  0.32330272126813964  0.775957750881838  0.6189683610765373  1.0000
  C   C8        1.0  0.676697278834102  0.22404224937917724  0.38103163877713897  1.0000
  C   C9        1.0  0.34715630033104466  0.6669084566789709  0.6980044403508847  1.0000
  C   C10       1.0  0.6528436997678613  0.33309154358634635  0.3019955603457068  1.0000
  C   C11       1.0  0.4565479424643105  0.7546842007779462  0.8065649018138467  1.0000
  C   C12       1.0  0.5434520576345955  0.24531579948737114  0.1934350988827449  1.0000
  C   C13       1.0  0.4757434298249579  0.6449798289329062  0.8877431605622907  1.0000
  C   C14       1.0  0.5242565702772838  0.3550201713281091  0.11225683929138558  1.0000
  C   C15       1.0  0.4916749511509874  0.5517127126990177  0.9603541133532695  1.0000
  C   C16       1.0  0.5083250489512542  0.4482872875619975  0.039645886500406936  1.0000
  C   C17       1.0  0.050936638677446945  0.9811266548469139  0.8493137640428654  1.0000
  C   C18       1.0  0.9490633609108243  0.01887334395504303  0.1506862356342504  1.0000
  C   C19       1.0  0.03570247047711288  0.09774187447629944  0.7728190547268994  1.0000
  C   C20       1.0  0.9642975296251287  0.9022581257847158  0.22718094512677697  1.0000
  C   C21       1.0  0.9397791494457987  0.013112306766431896  0.6615697838276082  1.0000
  C   C22       1.0  0.060220850653107366  0.9868876934988854  0.33843021686898334  1.0000
  C   C23       1.0  0.858209721831075  0.8097547175560434  0.6268615298053546  1.0000
  C   C24       1.0  0.14179027827116672  0.1902452827049719  0.37313847004832185  1.0000
  C   C25       1.0  0.8699796472412112  0.6915229778529521  0.7032185561061192  1.0000
  C   C26       1.0  0.13002035286103025  0.30847702240806296  0.2967814437475571  1.0000
  C   C27       1.0  0.9667903681680422  0.7757626420188981  0.8158882275831312  1.0000
  C   C28       1.0  0.03320963142022909  0.22423735678305892  0.18411177209398472  1.0000
  C   C29       1.0  0.9801700793487236  0.6569551420415736  0.8937545307102512  1.0000
  C   C30       1.0  0.01982992023954749  0.3430448567603832  0.10624546896686458  1.0000
  C   C31       1.0  0.9927747660197052  0.5554127521672845  0.9622993293471473  1.0000
  C   C32       1.0  0.0072252340825365345  0.44458724809373074  0.03770067050652904  1.0000
  F   F1        1.0  0.6563025428173445  0.05096560048637742  0.9314035938073294  1.0000
  F   F2        1.0  0.34369745728489715  0.9490343997746378  0.0685964060463469  1.0000
  F   F3        1.0  0.6089447303191633  0.2657985461023075  0.7769670126818101  1.0000
  F   F4        1.0  0.39105526978307836  0.7342014541587077  0.22303298717186631  1.0000
  F   F5        1.0  0.3856212240888821  0.08644721793747984  0.5717959955733046  1.0000
  F   F6        1.0  0.6143787760133594  0.9135527823235354  0.4282040042803718  1.0000
  F   F7        1.0  0.2172921620451483  0.6876199600955009  0.515677272595011  1.0000
  F   F8        1.0  0.7827078375397873  0.3123800387107578  0.48432272792501996  1.0000
  F   F9        1.0  0.26109295803456944  0.47095665182033714  0.6692161668656623  1.0000
  F   F10       1.0  0.7389070420676722  0.5290433484406781  0.33078383298801406  1.0000
