data_image0
_chemical_formula_structural       H84C56N12O48S8
_chemical_formula_sum              "H84 C56 N12 O48 S8"
_cell_length_a       18.729392377384084
_cell_length_b       4.992889799690182
_cell_length_c       21.057721005693793
_cell_angle_alpha    90.0
_cell_angle_beta     103.30136883137372
_cell_angle_gamma    90.0

_space_group_name_H-M_alt    "P 1"
_space_group_IT_number       1

loop_
  _space_group_symop_operation_xyz
  'x, y, z'

loop_
  _atom_site_type_symbol
  _atom_site_label
  _atom_site_symmetry_multiplicity
  _atom_site_fract_x
  _atom_site_fract_y
  _atom_site_fract_z
  _atom_site_occupancy
  H   H1        1.0  0.8895434594726186  0.49756471295524174  0.8752076462184204  1.0000
  H   H2        1.0  0.11045654055335682  0.49756471295524174  0.12479235380193743  1.0000
  H   H3        1.0  0.3895434593995485  0.9975647129862676  0.8752076460371642  1.0000
  H   H4        1.0  0.6104565406264267  0.9975647129862676  0.12479235398319334  1.0000
  H   H5        1.0  0.8351043561118583  0.02917838082647848  0.9675908316907612  1.0000
  H   H6        1.0  0.16489564391411698  0.02917838082647848  0.03240916832959655  1.0000
  H   H7        1.0  0.3351043560387883  0.5291783808575043  0.9675908315095052  1.0000
  H   H8        1.0  0.6648956439871869  0.5291783808575043  0.03240916851085247  1.0000
  H   H9        1.0  0.7018748252279227  0.10790179267193717  0.9611771211755414  1.0000
  H   H10       1.0  0.29812517479805256  0.10790179267193717  0.03882287884481626  1.0000
  H   H11       1.0  0.20187482515485278  0.6079017927029631  0.9611771209942855  1.0000
  H   H12       1.0  0.7981251748711226  0.6079017927029631  0.03882287902607215  1.0000
  H   H13       1.0  0.6448449398042425  0.45038399608570107  0.827743100750661  1.0000
  H   H14       1.0  0.3551550602217327  0.45038399608570107  0.17225689926969656  1.0000
  H   H15       1.0  0.1448449397377632  0.9503839961167269  0.8277431010456047  1.0000
  H   H16       1.0  0.8551550602882121  0.9503839961167269  0.17225689897475294  1.0000
  H   H17       1.0  0.7575402517385025  0.023931635744777392  0.7577957538929706  1.0000
  H   H18       1.0  0.24245974828747266  0.023931635744777392  0.24220424612738717  1.0000
  H   H19       1.0  0.25754025221403126  0.5239316357758033  0.7577957538182719  1.0000
  H   H20       1.0  0.7424597478119439  0.5239316357758033  0.24220424620208567  1.0000
  H   H21       1.0  0.6348493571885762  0.528671141542878  0.6141269963911882  1.0000
  H   H22       1.0  0.3651506428373991  0.528671141542878  0.38587300362916954  1.0000
  H   H23       1.0  0.13484935711550616  0.02867114151185208  0.6141269962099322  1.0000
  H   H24       1.0  0.8651506429104691  0.02867114151185208  0.3858730038104255  1.0000
  H   H25       1.0  0.692068216771391  0.9910820163319155  0.5237858992906657  1.0000
  H   H26       1.0  0.30793178325458426  0.9910820163319155  0.4762141007296921  1.0000
  H   H27       1.0  0.19206821669832105  0.49108201630088966  0.5237858991094096  1.0000
  H   H28       1.0  0.8079317833276541  0.49108201630088966  0.4762141009109479  1.0000
  H   H29       1.0  0.82484834124109  0.880619652425101  0.5421522232703205  1.0000
  H   H30       1.0  0.17515165878488534  0.880619652425101  0.45784777675003707  1.0000
  H   H31       1.0  0.32484834117461053  0.38061965239407497  0.5421522235652643  1.0000
  H   H32       1.0  0.6751516588513647  0.38061965239407497  0.45784777645509345  1.0000
  H   H33       1.0  0.8773096422294403  0.4973657800647017  0.6869381155112502  1.0000
  H   H34       1.0  0.12269035779653496  0.4973657800647017  0.31306188450910744  1.0000
  H   H35       1.0  0.37730964271155953  0.9973657800957276  0.6869381159127512  1.0000
  H   H36       1.0  0.6226903573144157  0.9973657800957276  0.3130618841076064  1.0000
  H   H37       1.0  0.957516507003239  0.9947032899280445  0.7491250184654416  1.0000
  H   H38       1.0  0.04248349302273626  0.9947032899280445  0.25087498155491605  1.0000
  H   H39       1.0  0.45751650693016904  0.49470328989701867  0.7491250182841857  1.0000
  H   H40       1.0  0.5424834930958062  0.49470328989701867  0.250874981736172  1.0000
  H   H41       1.0  0.971091454536974  0.7189673904324403  0.7984720785885212  1.0000
  H   H42       1.0  0.028908545489001347  0.7189673904324403  0.20152792143183637  1.0000
  H   H43       1.0  0.4710914544704945  0.2189673904014144  0.798472078883465  1.0000
  H   H44       1.0  0.5289085455554807  0.2189673904014144  0.20152792113689272  1.0000
  H   H45       1.0  0.8832851020189824  0.8078285966276042  0.7553291906527251  1.0000
  H   H46       1.0  0.11671489800699283  0.8078285966276042  0.24467080936763264  1.0000
  H   H47       1.0  0.3832851019459125  0.3078285965965783  0.7553291904714691  1.0000
  H   H48       1.0  0.6167148980800627  0.3078285965965783  0.24467080954888856  1.0000
  H   H49       1.0  0.928602987374225  0.9917942451498278  0.8180907230978536  1.0000
  H   H50       1.0  0.07139701265175041  0.9917942451498278  0.18190927692250408  1.0000
  H   H51       1.0  0.4286029873077455  0.49179424511880204  0.8180907233927972  1.0000
  H   H52       1.0  0.5713970127182298  0.49179424511880204  0.18190927662756043  1.0000
  H   H53       1.0  0.576424954663443  0.07577013616913295  0.7526685316323954  1.0000
  H   H54       1.0  0.42357504536253227  0.07577013616913295  0.24733146838796222  1.0000
  H   H55       1.0  0.07642495459696358  0.5757701362001588  0.7526685319273392  1.0000
  H   H56       1.0  0.9235750454290117  0.5757701362001588  0.2473314680930186  1.0000
  H   H57       1.0  0.6186673050216918  0.3038964529307561  0.7145106210518727  1.0000
  H   H58       1.0  0.3813326950042835  0.3038964529307561  0.285489378968485  1.0000
  H   H59       1.0  0.11866730494862181  0.8038964529617819  0.7145106208706167  1.0000
  H   H60       1.0  0.8813326950773535  0.8038964529617819  0.28548937914974093  1.0000
  H   H61       1.0  0.6169810091928395  0.9785724051636747  0.6926471573215279  1.0000
  H   H62       1.0  0.3830189908331358  0.9785724051636747  0.3073528426988296  1.0000
  H   H63       1.0  0.11698100912636009  0.47857240513264887  0.6926471576164717  1.0000
  H   H64       1.0  0.8830189908996152  0.47857240513264887  0.307352842403886  1.0000
  H   H65       1.0  0.5381379051878086  0.16872827436573404  0.674557501951022  1.0000
  H   H66       1.0  0.4618620948381667  0.16872827436573404  0.32544249806933573  1.0000
  H   H67       1.0  0.03813790511473854  0.66872827439676  0.674557501769766  1.0000
  H   H68       1.0  0.9618620949112369  0.66872827439676  0.3254424982505916  1.0000
  H   H69       1.0  0.5440438313161747  0.292758782717516  0.5212526659219944  1.0000
  H   H70       1.0  0.45595616870980044  0.292758782717516  0.47874733409836323  1.0000
  H   H71       1.0  0.0440438312431049  0.7927587827485418  0.5212526657407386  1.0000
  H   H72       1.0  0.9559561687828704  0.7927587827485418  0.4787473342796192  1.0000
  H   H73       1.0  0.5132761427346187  0.051716040281125884  0.4645659026152096  1.0000
  H   H74       1.0  0.48672385729135653  0.051716040281125884  0.5354340974051481  1.0000
  H   H75       1.0  0.013276142661548713  0.5517160403121518  0.46456590243395357  1.0000
  H   H76       1.0  0.9867238573644267  0.5517160403121518  0.535434097586404  1.0000
  H   H77       1.0  0.9579012210745589  0.7873677685103204  0.9769585121552035  1.0000
  H   H78       1.0  0.04209877895141619  0.7873677685103204  0.023041487865154208  1.0000
  H   H79       1.0  0.4579012210014891  0.28736777048214274  0.9769585119739476  1.0000
  H   H80       1.0  0.5420987790244862  0.28736777048214274  0.023041488046410118  1.0000
  H   H81       1.0  0.9839196701785653  0.022082131675896677  0.03591314384310044  1.0000
  H   H82       1.0  0.016080329847410094  0.022082131675896677  0.9640868561772573  1.0000
  H   H83       1.0  0.48391967010549525  0.5220821317069225  0.0359131436618445  1.0000
  H   H84       1.0  0.51608032992048  0.5220821317069225  0.9640868563585131  1.0000
  C   C1        1.0  0.7611431691981718  0.5338845492174505  0.8593065904992083  1.0000
  C   C2        1.0  0.23885683027920482  0.5338845492174505  0.140693409414592  1.0000
  C   C3        1.0  0.2611431696737005  0.03388454918642467  0.8593065904245096  1.0000
  C   C4        1.0  0.7388568303522748  0.03388454918642467  0.14069340959584792  1.0000
  C   C5        1.0  0.8148903827206476  0.6988694002852861  0.8997826559823574  1.0000
  C   C6        1.0  0.18510961730532757  0.6988694002852861  0.10021734403800017  1.0000
  C   C7        1.0  0.31489038264757774  0.1988694002542602  0.8997826558011016  1.0000
  C   C8        1.0  0.6851096173783975  0.1988694002542602  0.1002173442192561  1.0000
  C   C9        1.0  0.7933043826108641  0.9050136176208793  0.9366150231236996  1.0000
  C   C10       1.0  0.20669561741511108  0.9050136176208793  0.06338497689665813  1.0000
  C   C11       1.0  0.29330438254438473  0.4050136175898535  0.9366150234186431  1.0000
  C   C12       1.0  0.7066956169329918  0.4050136175898535  0.06338497649515706  1.0000
  C   C13       1.0  0.7194679153991262  0.9487366014555209  0.9329431971576746  1.0000
  C   C14       1.0  0.28053208462684903  0.9487366014555209  0.0670568028626831  1.0000
  C   C15       1.0  0.21946791532605622  0.44873660142449495  0.9329431969764187  1.0000
  C   C16       1.0  0.7805320841513204  0.44873660142449495  0.06705680293738163  1.0000
  C   C17       1.0  0.6662393084832869  0.7869302723732867  0.8930825617813984  1.0000
  C   C18       1.0  0.33376069154268834  0.7869302723732867  0.10691743823895913  1.0000
  C   C19       1.0  0.16623930841021697  0.2869302723422608  0.8930825616001427  1.0000
  C   C20       1.0  0.8337606916157583  0.2869302723422608  0.10691743842021505  1.0000
  C   C21       1.0  0.6866295813488817  0.5797805752050899  0.8568940238842787  1.0000
  C   C22       1.0  0.3133704186770937  0.5797805752050899  0.14310597613607906  1.0000
  C   C23       1.0  0.18662958127581164  0.079780575174064  0.8568940237030227  1.0000
  C   C24       1.0  0.8133704187501636  0.079780575174064  0.14310597631733496  1.0000
  C   C25       1.0  0.7863591141469246  0.32162309292298913  0.8211658373375453  1.0000
  C   C26       1.0  0.21364088587905058  0.32162309292298913  0.17883416268281235  1.0000
  C   C27       1.0  0.2863591140738547  0.821623092954015  0.8211658371562893  1.0000
  C   C28       1.0  0.7136408859521205  0.821623092954015  0.17883416286406828  1.0000
  C   C29       1.0  0.7619630627553194  0.45679839962450686  0.6416902292773828  1.0000
  C   C30       1.0  0.2380369372706559  0.45679839962450686  0.3583097707429749  1.0000
  C   C31       1.0  0.2619630626822495  0.9567983996555327  0.6416902290961269  1.0000
  C   C32       1.0  0.7380369373437259  0.9567983996555327  0.3583097709242308  1.0000
  C   C33       1.0  0.7097401454873266  0.31387786890414543  0.5940617889928316  1.0000
  C   C34       1.0  0.2902598545386486  0.31387786890414543  0.40593821102752603  1.0000
  C   C35       1.0  0.20974014542084723  0.8138778689351712  0.5940617892877753  1.0000
  C   C36       1.0  0.790259854605128  0.8138778689351712  0.4059382107325824  1.0000
  C   C37       1.0  0.7328766393654776  0.10536653944027453  0.5586594114078396  1.0000
  C   C38       1.0  0.26712336066049763  0.10536653944027453  0.4413405886125181  1.0000
  C   C39       1.0  0.23287663929240773  0.6053665394713004  0.5586594112265836  1.0000
  C   C40       1.0  0.7671233607335676  0.6053665394713004  0.441340588793774  1.0000
  C   C41       1.0  0.8068499176215964  0.0441181557849862  0.5688201151416304  1.0000
  C   C42       1.0  0.1931500824043789  0.0441181557849862  0.4311798848787271  1.0000
  C   C43       1.0  0.306849917555117  0.5441181558160121  0.5688201154365742  1.0000
  C   C44       1.0  0.6931500824708583  0.5441181558160121  0.4311798845837834  1.0000
  C   C45       1.0  0.8588504618502095  0.18833413268170854  0.6146333887522467  1.0000
  C   C46       1.0  0.1411495381757657  0.18833413268170854  0.38536661126811095  1.0000
  C   C47       1.0  0.35885046177713964  0.6883341327127344  0.6146333885709908  1.0000
  C   C48       1.0  0.6411495382488357  0.6883341327127344  0.38536661144936685  1.0000
  C   C49       1.0  0.8363958991569316  0.3906872389054214  0.6509445967164078  1.0000
  C   C50       1.0  0.16360410086904364  0.3906872389054214  0.3490554033039498  1.0000
  C   C51       1.0  0.33639589908386164  0.8906872389364472  0.650944596535152  1.0000
  C   C52       1.0  0.6636041009421135  0.8906872389364472  0.3490554034852057  1.0000
  C   C53       1.0  0.7370592133176254  0.6697765210454891  0.6811424002650217  1.0000
  C   C54       1.0  0.26294078670834997  0.6697765210454891  0.31885759975533595  1.0000
  C   C55       1.0  0.2370592132511459  0.16977652301731147  0.6811424005599654  1.0000
  C   C56       1.0  0.7629407867748295  0.16977652301731147  0.31885759946039227  1.0000
  N   N1        1.0  0.9348448404639216  0.8731751200017522  0.7799241408557809  1.0000
  N   N2        1.0  0.06515515956205373  0.8731751200017522  0.22007585916457686  1.0000
  N   N3        1.0  0.4348448403908516  0.3731751199707264  0.7799241406745249  1.0000
  N   N4        1.0  0.5651551596351237  0.3731751199707264  0.22007585934583282  1.0000
  N   N5        1.0  0.5874154144335141  0.13321969975008738  0.7082632617293022  1.0000
  N   N6        1.0  0.4125845855924612  0.13321969975008738  0.2917367382910554  1.0000
  N   N7        1.0  0.08741541490904281  0.6332196997811133  0.7082632616546036  1.0000
  N   N8        1.0  0.9125845851169325  0.6332196997811133  0.291736738365754  1.0000
  N   N9        1.0  0.499999999735393  0.17437389466397277  0.49999999971880027  1.0000
  N   N10       1.0  2.1751229089697258e-10  0.6743738926921505  0.5000000001203014  1.0000
  N   N11       1.0  0.9999999998864258  0.9108508644196789  1.3404544141337738e-10  1.0000
  N   N12       1.0  0.4999999999529054  0.410850864388653  0.9999999998391018  1.0000
  O   O1        1.0  0.8868953939634547  0.6622642823410966  0.9034766461759923  1.0000
  O   O2        1.0  0.11310460606252053  0.6622642823410966  0.0965233538443653  1.0000
  O   O3        1.0  0.38689539389697536  0.16226428231007067  0.903476646470936  1.0000
  O   O4        1.0  0.6131046061289999  0.16226428231007067  0.09652335354942165  1.0000
  O   O5        1.0  0.735585146238183  0.17837490225705838  0.7822918333447836  1.0000
  O   O6        1.0  0.2644148537877922  0.17837490225705838  0.2177081666755742  1.0000
  O   O7        1.0  0.23558514616511306  0.6783749022880843  0.7822918331635276  1.0000
  O   O8        1.0  0.7644148538608622  0.6783749022880843  0.2177081668568301  1.0000
  O   O9        1.0  0.8538045182646804  0.28293280578466956  0.825768563494621  1.0000
  O   O10       1.0  0.1461954817612948  0.28293280578466956  0.1742314365257367  1.0000
  O   O11       1.0  0.3538045181916105  0.7829328058156955  0.825768563313365  1.0000
  O   O12       1.0  0.6461954818343648  0.7829328058156955  0.17423143670699262  1.0000
  O   O13       1.0  0.548749987182668  0.017834535423859234  0.8266002363799828  1.0000
  O   O14       1.0  0.45125001284330735  0.017834535423859234  0.1733997636403749  1.0000
  O   O15       1.0  0.04874998710959796  0.5178345354548851  0.8266002361987269  1.0000
  O   O16       1.0  0.9512500129163772  0.5178345354548851  0.1733997638216308  1.0000
  O   O17       1.0  0.5331118552241919  0.6068401049404314  0.8845325743995635  1.0000
  O   O18       1.0  0.4668881448017834  0.6068401049404314  0.11546742562079423  1.0000
  O   O19       1.0  0.033111855699720597  0.10684010490940554  0.8845325743248649  1.0000
  O   O20       1.0  0.9668881443262546  0.10684010490940554  0.11546742569549276  1.0000
  O   O21       1.0  0.5711175205911645  0.01637930002081652  0.946736858942854  1.0000
  O   O22       1.0  0.4288824794348109  0.01637930002081652  0.05326314107750383  1.0000
  O   O23       1.0  0.07111752051809445  0.5163793000518424  0.946736858761598  1.0000
  O   O24       1.0  0.9288824795078808  0.5163793000518424  0.05326314125875972  1.0000
  O   O25       1.0  0.6376168628089014  0.37489319914814634  0.5820938998671885  1.0000
  O   O26       1.0  0.3623831372170738  0.37489319914814634  0.41790610015316915  1.0000
  O   O27       1.0  0.13761686328443015  0.8748931991791721  0.5820938997924899  1.0000
  O   O28       1.0  0.8623831367415451  0.8748931991791721  0.41790610022786767  1.0000
  O   O29       1.0  0.7841530712765041  0.8031065036221742  0.7226039484100819  1.0000
  O   O30       1.0  0.21584692874947117  0.8031065036221742  0.27739605161027575  1.0000
  O   O31       1.0  0.2841530712034342  0.30310650359114827  0.7226039482288259  1.0000
  O   O32       1.0  0.7158469282739425  0.30310650359114827  0.2773960516849743  1.0000
  O   O33       1.0  0.6674341985855771  0.7083550732923167  0.6719342608231949  1.0000
  O   O34       1.0  0.3325658014403982  0.7083550732923167  0.3280657391971628  1.0000
  O   O35       1.0  0.16743419851909763  0.2083550732612909  0.6719342611181386  1.0000
  O   O36       1.0  0.8325658015068776  0.2083550732612909  0.32806573890221913  1.0000
  O   O37       1.0  0.983047482209343  0.23065717173879177  0.5760991739259775  1.0000
  O   O38       1.0  0.01695251781663211  0.23065717173879177  0.4239008260943801  1.0000
  O   O39       1.0  0.4830474821362732  0.7306571717698177  0.5760991737447216  1.0000
  O   O40       1.0  0.5169525178897021  0.7306571717698177  0.423900826275636  1.0000
  O   O41       1.0  0.9549316733280184  0.8076664540543692  0.6231323847468716  1.0000
  O   O42       1.0  0.04506832669795681  0.8076664540543692  0.37686761527348617  1.0000
  O   O43       1.0  0.45493167326153905  0.3076664540233434  0.6231323850418151  1.0000
  O   O44       1.0  0.5450683267644362  0.3076664540233434  0.37686761497854243  1.0000
  O   O45       1.0  0.9884395033510857  0.1989770052729076  0.6935216401113119  1.0000
  O   O46       1.0  0.011560496674889465  0.1989770052729076  0.30647835990904587  1.0000
  O   O47       1.0  0.4884395032780158  0.6989770053039335  0.6935216399300559  1.0000
  O   O48       1.0  0.5115604967479594  0.6989770053039335  0.30647836009030177  1.0000
  S   S1        1.0  0.5724450994254516  0.8631702646966944  0.888196686989752  1.0000
  S   S2        1.0  0.4275549006005236  0.8631702646966944  0.11180331303060559  1.0000
  S   S3        1.0  0.07244509990098039  0.3631702646656685  0.8881966869150536  1.0000
  S   S4        1.0  0.9275549001249948  0.3631702646656685  0.11180331310530409  1.0000
  S   S5        1.0  0.9534458455459626  0.10285460136369647  0.6272924112448  1.0000
  S   S6        1.0  0.046554154480012766  0.10285460136369647  0.37270758877555776  1.0000
  S   S7        1.0  0.4534458454728925  0.6028546013947224  0.627292411063544  1.0000
  S   S8        1.0  0.5465541545530826  0.6028546013947224  0.37270758895681366  1.0000
