data_image0
_chemical_formula_structural       H50C40N2O26S4
_chemical_formula_sum              "H50 C40 N2 O26 S4"
_cell_length_a       7.2620345888848155
_cell_length_b       7.681119545953861
_cell_length_c       20.747968293214893
_cell_angle_alpha    93.71736078952203
_cell_angle_beta     99.17190672056412
_cell_angle_gamma    92.68548301794692

_space_group_name_H-M_alt    "P 1"
_space_group_IT_number       1

loop_
  _space_group_symop_operation_xyz
  'x, y, z'

loop_
  _atom_site_type_symbol
  _atom_site_label
  _atom_site_symmetry_multiplicity
  _atom_site_fract_x
  _atom_site_fract_y
  _atom_site_fract_z
  _atom_site_occupancy
  H   H1        1.0  0.6272179294949801  0.13420169013852887  0.3080619932846351  1.0000
  H   H2        1.0  0.3727820703677676  0.865798310502171  0.6919380064402371  1.0000
  H   H3        1.0  0.8545563294495442  0.4812833923895094  0.141531983743807  1.0000
  H   H4        1.0  0.14544367041805129  0.518716608233545  0.8584680164628388  1.0000
  H   H5        1.0  0.6132099467311011  0.612204816727409  0.06484489035080397  1.0000
  H   H6        1.0  0.38679005313164666  0.3877951839132908  0.9351551093740683  1.0000
  H   H7        1.0  0.1998267656657161  0.48514748365816646  0.18564894211036498  1.0000
  H   H8        1.0  0.8001732355023663  0.514852515646597  0.8143510581285931  1.0000
  H   H9        1.0  0.4416738678821016  0.35782036945349355  0.2634003968279072  1.0000
  H   H10       1.0  0.5583261319806461  0.6421796311872062  0.7365996028969649  1.0000
  H   H11       1.0  0.2935250461663758  0.9324675778742254  0.2178656503818411  1.0000
  H   H12       1.0  0.7064749536076379  0.0675324214421576  0.782134349781731  1.0000
  H   H13       1.0  0.04505568604506236  0.04327679611149555  0.13797032810148485  1.0000
  H   H14       1.0  0.9549443138225332  0.9567232045115588  0.8620296721051609  1.0000
  H   H15       1.0  0.4538983838631125  0.18333233990021866  0.017153046796829736  1.0000
  H   H16       1.0  0.5461016159109012  0.8166676594161641  0.9828469533667424  1.0000
  H   H17       1.0  0.7026100976499275  0.07093483774840113  0.09661504051730906  1.0000
  H   H18       1.0  0.2973899035181548  0.9290651615563624  0.903384959721649  1.0000
  H   H19       1.0  0.6591131519613935  0.5359001211516617  0.5052770023106576  1.0000
  H   H20       1.0  0.340886847906202  0.46409987947139264  0.4947229978959881  1.0000
  H   H21       1.0  0.8568873233416102  0.5533946170208333  0.46487078224499484  1.0000
  H   H22       1.0  0.14311267643240336  0.4466053822955497  0.5351292179185773  1.0000
  H   H23       1.0  0.6703770642861377  0.7107236337776905  0.37610207760548947  1.0000
  H   H24       1.0  0.32962293558145767  0.2892763668453639  0.6238979226011563  1.0000
  H   H25       1.0  0.5916084066816806  0.49049265606093456  0.3824291680750009  1.0000
  H   H26       1.0  0.40839159318591495  0.5095073445621198  0.6175708321316449  1.0000
  H   H27       1.0  0.26193972440392005  0.5405694900326168  0.33471312567315054  1.0000
  H   H28       1.0  0.7380602754588277  0.4594305106080831  0.6652868740517217  1.0000
  H   H29       1.0  0.3767800768040867  0.7397578275170038  0.3181102230057177  1.0000
  H   H30       1.0  0.6232199229699271  0.2602421717993791  0.6818897771578545  1.0000
  H   H31       1.0  0.02711049691108314  0.7558288334164478  0.3179953385201661  1.0000
  H   H32       1.0  0.9728895029565123  0.24417116720660653  0.6820046616864797  1.0000
  H   H33       1.0  0.0666221527557538  0.7141430161359371  0.40245135095805507  1.0000
  H   H34       1.0  0.9333778471118417  0.2858569844871174  0.5975486492485906  1.0000
  H   H35       1.0  0.9892512928896013  0.9626313179032221  0.44471764418530646  1.0000
  H   H36       1.0  0.010748708367215063  0.03736868272585834  0.5552823556149517  1.0000
  H   H37       1.0  0.9178794229862212  0.04737362518387531  0.36739701693471855  1.0000
  H   H38       1.0  0.08212057688137435  0.952626375439179  0.6326029832719272  1.0000
  H   H39       1.0  0.8184943455123043  0.7115058184060697  0.5991267152011911  1.0000
  H   H40       1.0  0.18150565435044347  0.28849418223463  0.4008732845236811  1.0000
  H   H41       1.0  0.017211352417399378  0.7062223286441521  0.5583041320366356  1.0000
  H   H42       1.0  0.982788648844265  0.29377767196728294  0.4416958682453961  1.0000
  H   H43       1.0  0.5574839216464215  0.15298460460465535  0.40361302565323753  1.0000
  H   H44       1.0  0.4425160796103951  0.8470153960244251  0.5963869741470206  1.0000
  H   H45       1.0  0.3764003693247211  0.08083583232512033  0.3558367453948717  1.0000
  H   H46       1.0  0.6235996304492926  0.9191641669912627  0.6441632547687005  1.0000
  H   H47       1.0  0.69237781306569  0.011210539223727115  0.48558463344346736  1.0000
  H   H48       1.0  0.3076221867034759  0.9887894601103013  0.5144153662383313  1.0000
  H   H49       1.0  0.627560924628493  0.18794282788470223  0.5148539586947124  1.0000
  H   H50       1.0  0.3724390752391026  0.8120571727383522  0.4851460415119333  1.0000
  C   C1        1.0  0.662081721188745  0.4132525404374523  0.2069450628490277  1.0000
  C   C2        1.0  0.3379182786788505  0.5867474601856022  0.793054937357618  1.0000
  C   C3        1.0  0.7122927609207119  0.48384747634520847  0.15161595530997193  1.0000
  C   C4        1.0  0.28770723884845406  0.5161525229888199  0.8483840443718268  1.0000
  C   C5        1.0  0.5759386636598399  0.5571463463268711  0.10817171353293409  1.0000
  C   C6        1.0  0.4240613375969765  0.44285365430220924  0.891828286267324  1.0000
  C   C7        1.0  0.3925329356922326  0.5566792581484746  0.12068796717188639  1.0000
  C   C8        1.0  0.6074670641705151  0.44332074249222514  0.879312032552986  1.0000
  C   C9        1.0  0.343194908480364  0.48679018515626715  0.17664409634288206  1.0000
  C   C10       1.0  0.6568050912888019  0.5132098141777612  0.8233559033389165  1.0000
  C   C11       1.0  0.47935625512996555  0.41500057817550584  0.22020014210193037  1.0000
  C   C12       1.0  0.5206437461316987  0.5849994224359292  0.7797998581801013  1.0000
  C   C13       1.0  0.5121393513945424  0.9965863627006601  0.16189648950870852  1.0000
  C   C14       1.0  0.487860649867122  0.0034136379107748754  0.8381035107733233  1.0000
  C   C15       1.0  0.3279717228157464  0.9866915393136229  0.17377452003719476  1.0000
  C   C16       1.0  0.6720282769582673  0.013308460002760125  0.8262254801263774  1.0000
  C   C17       1.0  0.18793570991867697  0.04904880456387425  0.12879794341616693  1.0000
  C   C18       1.0  0.8120642899489184  0.9509511960591802  0.8712020567904788  1.0000
  C   C19       1.0  0.23529887893403104  0.12204395113005403  0.07324140411268174  1.0000
  C   C20       1.0  0.7647011208351349  0.8779560482039743  0.9267585955691169  1.0000
  C   C21       1.0  0.4186946961396533  0.12759804277367068  0.060671264410872956  1.0000
  C   C22       1.0  0.581305305122011  0.8724019578377643  0.9393287358711587  1.0000
  C   C23       1.0  0.5588586548824616  0.06412333306215141  0.10543674981942765  1.0000
  C   C24       1.0  0.441141344985134  0.935876667560903  0.8945632503872182  1.0000
  C   C25       1.0  0.23989676684109887  0.6331206627709223  0.07122109554198514  1.0000
  C   C26       1.0  0.7601032330216487  0.36687933786977756  0.9287789041828871  1.0000
  C   C27       1.0  0.08157387922827714  0.20207169401521435  0.02556598624359386  1.0000
  C   C28       1.0  0.9184261205457365  0.7979283053011684  0.9744340139199783  1.0000
  C   C29       1.0  0.7275502812210263  0.6161914844558561  0.472726945728884  1.0000
  C   C30       1.0  0.2724497200406381  0.38380851615557887  0.5272730545531477  1.0000
  C   C31       1.0  0.6062183990713278  0.6227370815176964  0.407270784936479  1.0000
  C   C32       1.0  0.3937816007962677  0.37726291910535803  0.5927292152701668  1.0000
  C   C33       1.0  0.3028581676605024  0.6769072543931365  0.3536569197782147  1.0000
  C   C34       1.0  0.6971418322022453  0.3230927462475633  0.6463430799466576  1.0000
  C   C35       1.0  0.13114015076983573  0.7706752609188611  0.3632612998693291  1.0000
  C   C36       1.0  0.868859849092912  0.22932473972183887  0.6367386998555431  1.0000
  C   C37       1.0  0.037122646122174544  0.03885871231842933  0.4067220654421232  1.0000
  C   C38       1.0  0.9628773536518391  0.9611412869979535  0.593277934721449  1.0000
  C   C39       1.0  0.8945318745051664  0.780105845347278  0.5653213271826982  1.0000
  C   C40       1.0  0.10546812526399961  0.21989415398675022  0.43467867249910036  1.0000
  N   N1        1.0  0.7291622172880767  0.12482952839403945  0.2748244788699867  1.0000
  N   N2        1.0  0.27083778248593693  0.8751704709223435  0.7251755212935855  1.0000
  O   O1        1.0  0.9925603955470192  0.2849004364418958  0.2310905285935537  1.0000
  O   O2        1.0  0.007439604222146558  0.7150995628921326  0.7689094710882449  1.0000
  O   O3        1.0  0.8551896297668441  0.412454213701789  0.32518654372437433  1.0000
  O   O4        1.0  0.14481037149482004  0.587545786909646  0.6748134565576575  1.0000
  O   O5        1.0  0.859322741352869  0.9135334778388998  0.19658051980671876  1.0000
  O   O6        1.0  0.14067725841629683  0.08646652149512853  0.8034194798750799  1.0000
  O   O7        1.0  0.6196686280245924  0.8168335738950531  0.2630865349070273  1.0000
  O   O8        1.0  0.38033137174942117  0.18316642542132994  0.7369134652565449  1.0000
  O   O9        1.0  0.3029711050606159  0.7068440838858472  0.026578998778191917  1.0000
  O   O10       1.0  0.6970288961074665  0.2931559154189162  0.9734210014607663  1.0000
  O   O11       1.0  0.0780397998579151  0.6081892658023262  0.08445471160347404  1.0000
  O   O12       1.0  0.9219602013053197  0.3918107335200827  0.9155452881537106  1.0000
  O   O13       1.0  0.14347469770031568  0.28138930509497223  0.9817177694775399  1.0000
  O   O14       1.0  0.8565253021624321  0.7186106955457277  0.018282230247332318  1.0000
  O   O15       1.0  0.9201739504221  0.17537623315868758  0.03865640823624799  1.0000
  O   O16       1.0  0.07982604944549554  0.8246237674643669  0.9613435919703978  1.0000
  O   O17       1.0  0.7753998016146532  0.7883216671035648  0.5034912672203858  1.0000
  O   O18       1.0  0.22460019964701114  0.21167833350787035  0.4965087330616459  1.0000
  O   O19       1.0  0.4252372897668097  0.6794685708935172  0.4154802957441582  1.0000
  O   O20       1.0  0.5747627114948546  0.3205314297179178  0.5845197045378736  1.0000
  O   O21       1.0  0.183665343997485  0.9513268129212753  0.38142035895366216  1.0000
  O   O22       1.0  0.8163346558652627  0.048673187719424534  0.6185796407712101  1.0000
  O   O23       1.0  0.4884690565763575  0.15987311524849643  0.35757660233667493  1.0000
  O   O24       1.0  0.511530943291238  0.8401268853745579  0.6424233978699708  1.0000
  O   O25       1.0  0.6742622570482397  0.13400112159684516  0.4764877690999901  1.0000
  O   O26       1.0  0.32573774272092626  0.8659988777371832  0.5235122305818084  1.0000
  S   S1        1.0  0.832020907779291  0.31535609647696644  0.26214933098831983  1.0000
  S   S2        1.0  0.1679790919947225  0.6846439028394163  0.7378506691752523  1.0000
  S   S3        1.0  0.6929320161405235  0.9436669205172991  0.22403000258312616  1.0000
  S   S4        1.0  0.30706798363349014  0.05633307879908376  0.775969997580446  1.0000
