data_image0
_chemical_formula_structural       H24C16N8O28I8
_chemical_formula_sum              "H24 C16 N8 O28 I8"
_cell_length_a       8.820098231279948
_cell_length_b       12.412512766937615
_cell_length_c       8.903959713100422
_cell_angle_alpha    90.0
_cell_angle_beta     105.93693014401684
_cell_angle_gamma    90.0

_space_group_name_H-M_alt    "P 1"
_space_group_IT_number       1

loop_
  _space_group_symop_operation_xyz
  'x, y, z'

loop_
  _atom_site_type_symbol
  _atom_site_label
  _atom_site_symmetry_multiplicity
  _atom_site_fract_x
  _atom_site_fract_y
  _atom_site_fract_z
  _atom_site_occupancy
  H   H1        1.0  0.5037390066739087  0.4321407607561625  0.6361949359101574  1.0000
  H   H2        1.0  0.003739007082627732  0.5678592394905551  0.6361949363336028  1.0000
  H   H3        1.0  0.003739006716078106  0.9321407604767019  0.1361949358420164  1.0000
  H   H4        1.0  0.5037390066372848  0.067859238964377  0.1361949365865417  1.0000
  H   H5        1.0  0.26274245076673924  0.4213389495099228  0.967865829134778  1.0000
  H   H6        1.0  0.7627424514900139  0.5786610499311561  0.9678658287049701  1.0000
  H   H7        1.0  0.7627424511234643  0.9213389500361009  0.4678658282133837  1.0000
  H   H8        1.0  0.2627424504001896  0.07866105021061665  0.46786582864319154  1.0000
  H   H9        1.0  0.360487429364671  0.791209598282088  0.8494578196569764  1.0000
  H   H10       1.0  0.8604874292858775  0.20879040115899083  0.8494578204015018  1.0000
  H   H11       1.0  0.8604874300513217  0.2912095985615486  0.34945781990355285  1.0000
  H   H12       1.0  0.360487429328047  0.7087904016851688  0.34945782033336065  1.0000
  H   H13       1.0  0.18416818448366892  0.7546998295906834  0.024584277302117697  1.0000
  H   H14       1.0  0.6841681840749498  0.24530017065603418  0.024584276878672366  1.0000
  H   H15       1.0  0.6841681844414995  0.2546998290645053  0.5245842773702588  1.0000
  H   H16       1.0  0.18416818485021852  0.7453001703765736  0.5245842777937041  1.0000
  H   H17       1.0  0.14417022911071406  0.5590517279050526  0.08705619215750937  1.0000
  H   H18       1.0  0.6441702287019949  0.4409482723416649  0.08705619173406405  1.0000
  H   H19       1.0  0.6441702290685446  0.0590517281845132  0.5870561922256505  1.0000
  H   H20       1.0  0.14417022914733807  0.9409482720622042  0.5870561914811252  1.0000
  H   H21       1.0  0.4707415885514458  0.6436684537623368  0.7425603944519847  1.0000
  H   H22       1.0  0.9707415884726525  0.3563315464843807  0.7425603951965101  1.0000
  H   H23       1.0  0.9707415881061029  0.14366845323615873  0.24256039470492366  1.0000
  H   H24       1.0  0.47074158851482195  0.8563315462049201  0.24256039512836897  1.0000
  C   C1        1.0  0.36522121559964665  0.5218083414385062  0.8398132797011695  1.0000
  C   C2        1.0  0.8652212151909277  0.4781916588082114  0.8398132792777242  1.0000
  C   C3        1.0  0.8652212151543035  0.021808340912328063  0.3398132799541084  1.0000
  C   C4        1.0  0.36522121523309703  0.9781916585287508  0.33981327920958304  1.0000
  C   C5        1.0  0.3325748404206455  0.7096462316206108  0.8780220660628837  1.0000
  C   C6        1.0  0.8325748403418521  0.29035376782046807  0.8780220668074091  1.0000
  C   C7        1.0  0.8325748411072963  0.20964623190007137  0.3780220663094601  1.0000
  C   C8        1.0  0.3325748403840215  0.7903537683466462  0.3780220667392679  1.0000
  C   C9        1.0  0.23751047665180802  0.6896214336875067  0.9754990702540887  1.0000
  C   C10       1.0  0.7375104762430891  0.3103785657535721  0.9754990698306434  1.0000
  C   C11       1.0  0.7375104758765393  0.18962143396696735  0.4754990693390569  1.0000
  C   C12       1.0  0.2375104762852584  0.8103785662797501  0.47549906976250217  1.0000
  C   C13       1.0  0.21331568826949895  0.5829861967413169  0.008001937867724412  1.0000
  C   C14       1.0  0.7133156881907055  0.417013802699762  0.008001938612249744  1.0000
  C   C15       1.0  0.7133156882273295  0.08298619702077742  0.5080019379358656  1.0000
  C   C16       1.0  0.21331568750405483  0.9170138032259402  0.5080019383656734  1.0000
  N   N1        1.0  0.27650515027857886  0.5038704046016498  0.9425426258464681  1.0000
  N   N2        1.0  0.7765051501997854  0.4961295956450677  0.9425426265909933  1.0000
  N   N3        1.0  0.7765051509652295  0.0038704040754717114  0.4425426260930444  1.0000
  N   N4        1.0  0.2765051502419548  0.9961295953656072  0.4425426265228523  1.0000
  N   N5        1.0  0.39384792425586457  0.6283388236082528  0.8147312841625669  1.0000
  N   N6        1.0  0.8938479238471455  0.3716611758328261  0.8147312837391215  1.0000
  N   N7        1.0  0.8938479238105215  0.12833882388771334  0.3147312844155057  1.0000
  N   N8        1.0  0.3938479238893149  0.8716611763590042  0.31473128367098036  1.0000
  O   O1        1.0  0.7529188669099329  0.7092947967353538  0.9923816267438323  1.0000
  O   O2        1.0  0.2529188661866582  0.2907052035113637  0.9923816271736402  1.0000
  O   O3        1.0  0.25291886728202806  0.20929479620917568  0.49238162784366196  1.0000
  O   O4        1.0  0.752918866873309  0.7907052032319032  0.4923816274202166  1.0000
  O   O5        1.0  0.6044970768589475  0.6215296938545154  0.19885928691784494  1.0000
  O   O6        1.0  0.10449707613567269  0.37847030639220214  0.19885928734765276  1.0000
  O   O7        1.0  0.10449707650222234  0.12152969332833731  0.6988592878392392  1.0000
  O   O8        1.0  0.6044970772254971  0.8784703061127416  0.6988592874094314  1.0000
  O   O9        1.0  0.5938814939581677  0.8429192103527111  0.14457093761972145  1.0000
  O   O10       1.0  0.09388149436688678  0.15708078989400642  0.1445709380431668  1.0000
  O   O11       1.0  0.09388149360144264  0.3429192106321716  0.6445709385411158  1.0000
  O   O12       1.0  0.5938814943247174  0.6570807896145459  0.644570938111308  1.0000
  O   O13       1.0  0.7897976151982001  0.4601122582699297  0.4298356413117751  1.0000
  O   O14       1.0  0.2897976156069192  0.5398877419767878  0.42983564173522043  1.0000
  O   O15       1.0  0.2897976156435432  0.9601122579904692  0.9298356410588362  1.0000
  O   O16       1.0  0.7897976155647497  0.039887741450609734  0.9298356418033615  1.0000
  O   O17       1.0  0.4933015455374229  0.4019144007076672  0.24713507764962042  1.0000
  O   O18       1.0  0.9933015454586293  0.5980855995390503  0.24713507839414578  1.0000
  O   O19       1.0  0.9933015454952534  0.9019144004282066  0.7471350777177616  1.0000
  O   O20       1.0  0.4933015459039725  0.09808559901287221  0.7471350781412069  1.0000
  O   O21       1.0  0.5727482923715419  0.39969759734829485  0.5751347192000026  1.0000
  O   O22       1.0  0.07274829245033543  0.6003024028984227  0.5751347184554775  1.0000
  O   O23       1.0  0.07274829241371136  0.8996975970688342  0.07513471913186155  1.0000
  O   O24       1.0  0.5727482920049922  0.10030240317788326  0.07513471870841623  1.0000
  O   O25       1.0  0.4172179101982969  0.4456257869666367  0.7779716934739509  1.0000
  O   O26       1.0  0.9172179097895777  0.5543742132800809  0.7779716930505056  1.0000
  O   O27       1.0  0.9172179097529538  0.9456257866871761  0.2779716937268898  1.0000
  O   O28       1.0  0.4172179098317472  0.05437421275390275  0.27797169298236446  1.0000
  I   I1        1.0  0.7392295181967526  0.7334503465124014  0.19162484160657164  1.0000
  I   I2        1.0  0.23922951827554614  0.26654965292867755  0.19162484086204631  1.0000
  I   I3        1.0  0.2392295175101021  0.2334503467918619  0.6916248413599954  1.0000
  I   I4        1.0  0.7392295182333767  0.7665496534548556  0.6916248409301875  1.0000
  I   I5        1.0  0.5845934981190715  0.4940532328260381  0.4039264619983903  1.0000
  I   I6        1.0  0.08459349819786487  0.5059467666150408  0.40392646125386494  1.0000
  I   I7        1.0  0.0845934985644145  0.9940532333522162  0.9039264617454514  1.0000
  I   I8        1.0  0.5845934981556955  0.005946766894501353  0.9039264613220062  1.0000
