data_image0
_chemical_formula_structural       H48C32N16O56I16
_chemical_formula_sum              "H48 C32 N16 O56 I16"
_cell_length_a       13.635889126205727
_cell_length_b       7.590063194562816
_cell_length_c       18.777819661340516
_cell_angle_alpha    90.0
_cell_angle_beta     90.0
_cell_angle_gamma    90.0

_space_group_name_H-M_alt    "P 1"
_space_group_IT_number       1

loop_
  _space_group_symop_operation_xyz
  'x, y, z'

loop_
  _atom_site_type_symbol
  _atom_site_label
  _atom_site_symmetry_multiplicity
  _atom_site_fract_x
  _atom_site_fract_y
  _atom_site_fract_z
  _atom_site_occupancy
  H   H1        1.0  0.030706324767287706  0.24782413950748994  0.5967225190190203  1.0000
  H   H2        1.0  0.9692936755109688  0.7521758612088657  0.09672251905471446  1.0000
  H   H3        1.0  0.5307063245397365  0.7521758612088657  0.5967225190190203  1.0000
  H   H4        1.0  0.46929367500516106  0.24782413950748994  0.09672251905471446  1.0000
  H   H5        1.0  0.7774393559439139  0.25149037380444994  0.9033737476414242  1.0000
  H   H6        1.0  0.22256064433434244  0.7485096255943935  0.40337374767711826  1.0000
  H   H7        1.0  0.2774393554381064  0.7485096255943935  0.9033737476414242  1.0000
  H   H8        1.0  0.7225606441067912  0.25149037380444994  0.40337374767711826  1.0000
  H   H9        1.0  0.23826695127316938  0.078722113990833  0.6211399763313815  1.0000
  H   H10       1.0  0.7617330490050871  0.9212778854080106  0.12113997583453252  1.0000
  H   H11       1.0  0.7382669510456181  0.9212778854080106  0.6211399763313815  1.0000
  H   H12       1.0  0.26173304849927936  0.078722113990833  0.12113997583453252  1.0000
  H   H13       1.0  0.20076955192739782  0.9799960118024338  0.7484219447976489  1.0000
  H   H14       1.0  0.7992304483508585  0.02000398891392174  0.24842194483334312  1.0000
  H   H15       1.0  0.7007695516998467  0.02000398891392174  0.7484219447976489  1.0000
  H   H16       1.0  0.29923044784505093  0.9799960118024338  0.24842194483334312  1.0000
  H   H17       1.0  0.3456357804305084  0.9675936262640059  0.8340140544773977  1.0000
  H   H18       1.0  0.654364219847748  0.03240637313483759  0.3340140545130919  1.0000
  H   H19       1.0  0.8456357802029572  0.03240637313483759  0.8340140544773977  1.0000
  H   H20       1.0  0.1543642200752992  0.9675936262640059  0.3340140545130919  1.0000
  H   H21       1.0  0.4056524065870838  0.12100367104425681  0.5884126080275298  1.0000
  H   H22       1.0  0.5943475929578138  0.8789963296720987  0.08841260806322396  1.0000
  H   H23       1.0  0.9056524070928914  0.8789963296720987  0.5884126080275298  1.0000
  H   H24       1.0  0.094347593185365  0.12100367104425681  0.08841260806322396  1.0000
  H   H25       1.0  0.5027152264553092  0.02433208990042376  0.7929916049122916  1.0000
  H   H26       1.0  0.4972847738229472  0.9756679094984197  0.2929916049479857  1.0000
  H   H27       1.0  0.002715225949501564  0.9756679094984197  0.7929916049122916  1.0000
  H   H28       1.0  0.997284773595396  0.02433208990042376  0.2929916049479857  1.0000
  H   H29       1.0  0.5909422330601037  0.46338214186668353  0.6662193372618066  1.0000
  H   H30       1.0  0.40905776721815257  0.53661785753216  0.1662193372975007  1.0000
  H   H31       1.0  0.09094223328765506  0.53661785753216  0.6662193372618066  1.0000
  H   H32       1.0  0.9090577669906014  0.46338214186668353  0.1662193372975007  1.0000
  H   H33       1.0  0.44662049930400105  0.49458588206342663  0.7523677500794275  1.0000
  H   H34       1.0  0.5533795009742554  0.505414118652929  0.2523677501151216  1.0000
  H   H35       1.0  0.9466204990764497  0.505414118652929  0.7523677500794275  1.0000
  H   H36       1.0  0.053379500468447735  0.49458588206342663  0.2523677501151216  1.0000
  H   H37       1.0  0.48731727271304204  0.5845691328602388  0.879468724689044  1.0000
  H   H38       1.0  0.5126827268318556  0.41543086785611666  0.37946872472473814  1.0000
  H   H39       1.0  0.9873172732188497  0.41543086785611666  0.879468724689044  1.0000
  H   H40       1.0  0.012682727059406778  0.5845691328602388  0.37946872472473814  1.0000
  H   H41       1.0  0.7493907309910339  0.5145822280897316  0.7071732527785934  1.0000
  H   H42       1.0  0.2506092685538637  0.4854177713091119  0.20717325281428764  1.0000
  H   H43       1.0  0.24939073121858513  0.4854177713091119  0.7071732527785934  1.0000
  H   H44       1.0  0.7506092690596713  0.5145822280897316  0.20717325281428764  1.0000
  H   H45       1.0  0.6557277642288963  0.616712401466325  0.9116803589953041  1.0000
  H   H46       1.0  0.34427223604936  0.3832875979325186  0.41168035849845497  1.0000
  H   H47       1.0  0.15572776372308872  0.3832875979325186  0.9116803589953041  1.0000
  H   H48       1.0  0.8442722358218089  0.616712401466325  0.41168035849845497  1.0000
  C   C1        1.0  0.46790215738394964  0.07999552236072954  0.6861352719520273  1.0000
  C   C2        1.0  0.5320978421609479  0.9200044770381139  0.18613527198772142  1.0000
  C   C3        1.0  0.9679021578897573  0.9200044770381139  0.6861352719520273  1.0000
  C   C4        1.0  0.032097842388499095  0.07999552236072954  0.18613527198772142  1.0000
  C   C5        1.0  0.29510971252079454  0.05871357966021107  0.6613735984251867  1.0000
  C   C6        1.0  0.7048902877574619  0.9412864210561446  0.16137359846088095  1.0000
  C   C7        1.0  0.7951097122932433  0.9412864210561446  0.6613735984251867  1.0000
  C   C8        1.0  0.2048902879850131  0.05871357966021107  0.16137359846088095  1.0000
  C   C9        1.0  0.27488044639469517  0.008698820853994614  0.7308705743007575  1.0000
  C   C10       1.0  0.7251195538835612  0.991301179862361  0.23087057433645167  1.0000
  C   C11       1.0  0.7748804461671439  0.991301179862361  0.7308705743007575  1.0000
  C   C12       1.0  0.2251195533777536  0.008698820853994614  0.23087057433645167  1.0000
  C   C13       1.0  0.35332162174455867  0.9991170146557388  0.7776408999210486  1.0000
  C   C14       1.0  0.6466783785336977  0.0008829847431047677  0.2776408999567428  1.0000
  C   C15       1.0  0.8533216215170074  0.0008829847431047677  0.7776408999210486  1.0000
  C   C16       1.0  0.14667837802789013  0.9991170146557388  0.2776408999567428  1.0000
  C   C17       1.0  0.7164861674640607  0.5719006546756461  0.813702513154779  1.0000
  C   C18       1.0  0.28351383281419573  0.42809934472319744  0.3137025131904732  1.0000
  C   C19       1.0  0.21648616695825304  0.42809934472319744  0.813702513154779  1.0000
  C   C20       1.0  0.7835138325866445  0.5719006546756461  0.3137025131904732  1.0000
  C   C21       1.0  0.5995191515813344  0.49763272099048145  0.7225148699202842  1.0000
  C   C22       1.0  0.4004808486969221  0.502367278408362  0.22251486995597844  1.0000
  C   C23       1.0  0.09951915107552674  0.502367278408362  0.7225148699202842  1.0000
  C   C24       1.0  0.9004808484693708  0.49763272099048145  0.22251486995597844  1.0000
  C   C25       1.0  0.5217459891432578  0.5146930348087854  0.769525844352924  1.0000
  C   C26       1.0  0.4782540104016398  0.4853069645900581  0.2695258443886182  1.0000
  C   C27       1.0  0.02174598937080902  0.4853069645900581  0.769525844352924  1.0000
  C   C28       1.0  0.9782540109074473  0.5146930348087854  0.2695258443886182  1.0000
  C   C29       1.0  0.5435595736662032  0.5619242489384392  0.8390324113313624  1.0000
  C   C30       1.0  0.4564404266120533  0.4380757504604044  0.33903241136705653  1.0000
  C   C31       1.0  0.043559573160395514  0.4380757504604044  0.8390324113313624  1.0000
  C   C32       1.0  0.9564404263845021  0.5619242489384392  0.33903241136705653  1.0000
  N   N1        1.0  0.38750477589650945  0.09216549217944862  0.64142914018912  1.0000
  N   N2        1.0  0.612495224381747  0.907834508536907  0.14142914022481415  1.0000
  N   N3        1.0  0.8875047756689582  0.907834508536907  0.64142914018912  1.0000
  N   N4        1.0  0.1124952246092982  0.09216549217944862  0.14142914022481415  1.0000
  N   N5        1.0  0.4446950817711213  0.03466889711649584  0.7554776377582523  1.0000
  N   N6        1.0  0.5553049177737762  0.9653311035998599  0.2554776377939465  1.0000
  N   N7        1.0  0.944695082276929  0.9653311035998599  0.7554776377582523  1.0000
  N   N8        1.0  0.055304918001327426  0.03466889711649584  0.2554776377939465  1.0000
  N   N9        1.0  0.6918053441686277  0.5255258062748912  0.7446057685166758  1.0000
  N   N10       1.0  0.3081946553762699  0.47447419312395234  0.2446057685523699  1.0000
  N   N11       1.0  0.19180534439617888  0.47447419312395234  0.7446057685166758  1.0000
  N   N12       1.0  0.8081946551487187  0.5255258062748912  0.2446057685523699  1.0000
  N   N13       1.0  0.6367321719647875  0.5885175861513088  0.8587225439808527  1.0000
  N   N14       1.0  0.3632678275801101  0.4114824132475347  0.35872254401654674  1.0000
  N   N15       1.0  0.13673217219233869  0.4114824132475347  0.8587225439808527  1.0000
  N   N16       1.0  0.8632678280859177  0.5885175861513088  0.35872254401654674  1.0000
  O   O1        1.0  0.9637367522110881  0.26733355546414184  0.622578705134152  1.0000
  O   O2        1.0  0.036263247333809374  0.7326664439347017  0.12257870516984619  1.0000
  O   O3        1.0  0.4637367524386394  0.7326664439347017  0.622578705134152  1.0000
  O   O4        1.0  0.5362632471062582  0.26733355546414184  0.12257870516984619  1.0000
  O   O5        1.0  0.8319780965509179  0.5266738085742979  0.6471151544296241  1.0000
  O   O6        1.0  0.16802190372733847  0.4733261921420578  0.14711515446531825  1.0000
  O   O7        1.0  0.3319780960451103  0.4733261921420578  0.6471151544296241  1.0000
  O   O8        1.0  0.6680219034997873  0.5266738085742979  0.14711515446531825  1.0000
  O   O9        1.0  0.7877561925431233  0.247032247550081  0.5508632512482846  1.0000
  O   O10       1.0  0.21224380700177423  0.7529677531662747  0.050863251283978776  1.0000
  O   O11       1.0  0.28775619277067455  0.7529677531662747  0.5508632512482846  1.0000
  O   O12       1.0  0.7122438075075819  0.247032247550081  0.050863251283978776  1.0000
  O   O13       1.0  0.8703719464241808  0.7962616970474531  0.06659930932102277  1.0000
  O   O14       1.0  0.1296280538540756  0.2037383036689026  0.5665993092853285  1.0000
  O   O15       1.0  0.3703719459183732  0.2037383036689026  0.06659930932102277  1.0000
  O   O16       1.0  0.6296280536265244  0.7962616970474531  0.5665993092853285  1.0000
  O   O17       1.0  0.7153059305282037  0.6352198731960239  0.9922178584108267  1.0000
  O   O18       1.0  0.28469406975005285  0.3647801275203317  0.4922178584465207  1.0000
  O   O19       1.0  0.21530593075575483  0.3647801275203317  0.9922178584108267  1.0000
  O   O20       1.0  0.7846940695225015  0.6352198731960239  0.4922178584465207  1.0000
  O   O21       1.0  0.8149908991737526  0.923003454703584  0.9372246420191489  1.0000
  O   O22       1.0  0.18500910110450386  0.07699654469525952  0.43722464205484296  1.0000
  O   O23       1.0  0.31499089940130376  0.07699654469525952  0.9372246420191489  1.0000
  O   O24       1.0  0.6850091008769525  0.923003454703584  0.43722464205484296  1.0000
  O   O25       1.0  0.5674309418613606  0.4231554662549811  0.562177349148447  1.0000
  O   O26       1.0  0.43256905841689586  0.5768445344613744  0.06217734918414113  1.0000
  O   O27       1.0  0.06743094208891177  0.5768445344613744  0.562177349148447  1.0000
  O   O28       1.0  0.9325690581893447  0.4231554662549811  0.06217734918414113  1.0000
  O   O29       1.0  0.6229586154140045  0.29419148072437307  0.433295324842797  1.0000
  O   O30       1.0  0.3770413848642518  0.7058085186744705  0.9332953248071029  1.0000
  O   O31       1.0  0.12295861490819694  0.7058085186744705  0.433295324842797  1.0000
  O   O32       1.0  0.8770413846367006  0.29419148072437307  0.9332953248071029  1.0000
  O   O33       1.0  0.46668589126103677  0.1364369602010472  0.5075980066857004  1.0000
  O   O34       1.0  0.5333141090172197  0.8635630391977964  0.007598006721394551  1.0000
  O   O35       1.0  0.9666858910334857  0.8635630391977964  0.5075980066857004  1.0000
  O   O36       1.0  0.03331410851141196  0.1364369602010472  0.007598006721394551  1.0000
  O   O37       1.0  0.7115337914675282  0.22833353367090428  0.8767852970649231  1.0000
  O   O38       1.0  0.28846620881072826  0.7716664657279393  0.3767852971006173  1.0000
  O   O39       1.0  0.21153379096172054  0.7716664657279393  0.8767852970649231  1.0000
  O   O40       1.0  0.7884662085831771  0.22833353367090428  0.3767852971006173  1.0000
  O   O41       1.0  0.5789508631914712  0.9699700821033883  0.852952261703455  1.0000
  O   O42       1.0  0.4210491370867853  0.030029917295455223  0.35295226173914923  1.0000
  O   O43       1.0  0.07895086341902233  0.030029917295455223  0.852952261703455  1.0000
  O   O44       1.0  0.9210491368592341  0.9699700821033883  0.35295226173914923  1.0000
  O   O45       1.0  0.5362354938738508  0.2496742940635231  0.9491542331026755  1.0000
  O   O46       1.0  0.4637645064044056  0.7503257053353204  0.4491542331383696  1.0000
  O   O47       1.0  0.03623549410140205  0.7503257053353204  0.9491542331026755  1.0000
  O   O48       1.0  0.9637645061768543  0.2496742940635231  0.4491542331383696  1.0000
  O   O49       1.0  0.5528647065274078  0.10967532662920712  0.6662311474721504  1.0000
  O   O50       1.0  0.4471352930174898  0.8903246727696363  0.1662311475078446  1.0000
  O   O51       1.0  0.052864706754959016  0.8903246727696363  0.6662311474721504  1.0000
  O   O52       1.0  0.9471352935232974  0.10967532662920712  0.1662311475078446  1.0000
  O   O53       1.0  0.8019532484305869  0.598945096169499  0.8329450826605406  1.0000
  O   O54       1.0  0.19804675184766946  0.40105490454685666  0.3329450826962347  1.0000
  O   O55       1.0  0.3019532479247793  0.40105490454685666  0.8329450826605406  1.0000
  O   O56       1.0  0.6980467516201182  0.598945096169499  0.3329450826962347  1.0000
  I   I1        1.0  0.8791757478403488  0.4188252822818696  0.5687248579762755  1.0000
  I   I2        1.0  0.12082425170454875  0.581174718434486  0.0687248580119697  1.0000
  I   I3        1.0  0.37917574806790005  0.581174718434486  0.5687248579762755  1.0000
  I   I4        1.0  0.6208242514769976  0.4188252822818696  0.0687248580119697  1.0000
  I   I5        1.0  0.8434150265931466  0.710327556147646  0.9776058792274877  1.0000
  I   I6        1.0  0.15658497295175106  0.2896724432511975  0.47760587926318177  1.0000
  I   I7        1.0  0.34341502682069774  0.2896724432511975  0.9776058792274877  1.0000
  I   I8        1.0  0.6565849734575587  0.710327556147646  0.47760587926318177  1.0000
  I   I9        1.0  0.5952262734669544  0.20947583033813985  0.522278783526238  1.0000
  I   I10       1.0  0.404773726811302  0.7905241690607038  0.022278783561932178  1.0000
  I   I11       1.0  0.09522627369450566  0.7905241690607038  0.522278783526238  1.0000
  I   I12       1.0  0.9047737265837508  0.20947583033813985  0.022278783561932178  1.0000
  I   I13       1.0  0.6272194332794374  0.07702167096827085  0.9313559020915372  1.0000
  I   I14       1.0  0.37278056626546  0.9229783284305727  0.43135590212723135  1.0000
  I   I15       1.0  0.12721943350698872  0.9229783284305727  0.9313559020915372  1.0000
  I   I16       1.0  0.8727805667712677  0.07702167096827085  0.43135590212723135  1.0000
