data_image0
_chemical_formula_structural       H67C50N4O18Cl3
_chemical_formula_sum              "H67 C50 N4 O18 Cl3"
_cell_length_a       10.321284471133222
_cell_length_b       11.823183012922836
_cell_length_c       12.003332285132103
_cell_angle_alpha    99.64204564992343
_cell_angle_beta     97.68024435345497
_cell_angle_gamma    112.9678862373089

_space_group_name_H-M_alt    "P 1"
_space_group_IT_number       1

loop_
  _space_group_symop_operation_xyz
  'x, y, z'

loop_
  _atom_site_type_symbol
  _atom_site_label
  _atom_site_symmetry_multiplicity
  _atom_site_fract_x
  _atom_site_fract_y
  _atom_site_fract_z
  _atom_site_occupancy
  H   H1        1.0  0.10902987831265547  0.6729234605240795  0.71070355396618  1.0000
  H   H2        1.0  0.16024450033043455  0.6384770052820394  0.8989843566870948  1.0000
  H   H3        1.0  0.10834127717309014  0.4751299839351053  0.8320896551590442  1.0000
  H   H4        1.0  0.37858938913867546  0.6124579813767687  0.8807624911704528  1.0000
  H   H5        1.0  0.3102776927125359  0.5312987945642637  0.7320881713899031  1.0000
  H   H6        1.0  0.5164974388328215  0.7215345298219007  0.6846076786639671  1.0000
  H   H7        1.0  0.5654796645172829  0.7682398258806505  0.838490888494557  1.0000
  H   H8        1.0  0.6535592473075802  0.9536232043200331  0.7430845935157103  1.0000
  H   H9        1.0  0.47040205067179014  0.91322615630486  0.6794447175079362  1.0000
  H   H10       1.0  0.434458390275024  0.9352450737272787  0.8835899416656303  1.0000
  H   H11       1.0  0.6175474808346105  0.9984898576669093  0.9354010807629439  1.0000
  H   H12       1.0  0.6363464465773496  0.16731846117431978  0.8286912056186057  1.0000
  H   H13       1.0  0.5388370480811653  0.16033185662209104  0.9402520335819227  1.0000
  H   H14       1.0  0.4078009052627485  0.19666421311059143  0.7800036050298029  1.0000
  H   H15       1.0  0.40537292998230834  0.06611796894970746  0.6787157666536691  1.0000
  H   H16       1.0  0.13646609700132503  0.96362421500296  0.6435374479292773  1.0000
  H   H17       1.0  0.14398621321159363  0.09599424018884804  0.7477778154696476  1.0000
  H   H18       1.0  0.05209816649506579  0.9435350934063007  0.8771590415980075  1.0000
  H   H19       1.0  0.926994012856179  0.9241064382811631  0.7503777223958413  1.0000
  H   H20       1.0  0.8396175390844078  0.7071096808689521  0.8257755968410596  1.0000
  H   H21       1.0  0.01608078992050499  0.7422974256850092  0.9032345326419514  1.0000
  H   H22       1.0  0.8393763580318293  0.5426911747170164  0.6753326574695354  1.0000
  H   H23       1.0  0.8878607450532028  0.5094679928405982  0.8104851353958221  1.0000
  H   H24       1.0  0.14421027571345232  0.5074219253824107  0.5955844948291977  1.0000
  H   H25       1.0  0.9917511672649428  0.39505936777408324  0.6286544283388054  1.0000
  H   H26       1.0  0.22018795806800628  0.6941558706115933  0.5751316633523555  1.0000
  H   H27       1.0  0.3145608235683212  0.870314560683919  0.4843174991859612  1.0000
  H   H28       1.0  0.16075905698715476  0.8943463148173457  0.32010052941554945  1.0000
  H   H29       1.0  0.904954424193262  0.7363412492186273  0.24618454434982023  1.0000
  H   H30       1.0  0.7045087285719694  0.5472958827534121  0.25509669579374766  1.0000
  H   H31       1.0  0.5008520603220707  0.35200188197527776  0.2571451254692274  1.0000
  H   H32       1.0  0.40029055814956044  0.16096938264408042  0.33345514372747154  1.0000
  H   H33       1.0  0.5518687076197044  0.1299803855795778  0.495344068734394  1.0000
  H   H34       1.0  0.7961305111392756  0.28430739390029935  0.5811389873177881  1.0000
  H   H35       1.0  0.1516215904560593  0.3624966005542232  0.18012784337208793  1.0000
  H   H36       1.0  0.09850073203944651  0.5439074852670325  0.060088906191097746  1.0000
  H   H37       1.0  0.06929479575459592  0.3858643642403559  0.99216254798651  1.0000
  H   H38       1.0  0.9154860791471404  0.4613993553703694  0.17441890846357275  1.0000
  H   H39       1.0  0.8409625671171534  0.3815646917016612  0.026650707445600427  1.0000
  H   H40       1.0  0.6820550957998741  0.2192589483774598  0.09499924670297029  1.0000
  H   H41       1.0  0.7640340864098785  0.2619885889669812  0.2448197697865956  1.0000
  H   H42       1.0  0.6400246717114537  0.029092894935225763  0.17724188305242736  1.0000
  H   H43       1.0  0.8297800599140746  0.08212666340151752  0.22181883252251514  1.0000
  H   H44       1.0  0.835673883579883  0.07646556178906648  0.016252848394360194  1.0000
  H   H45       1.0  0.755728840379668  0.8552331513099196  0.9465162906817237  1.0000
  H   H46       1.0  0.6691649496675411  0.8302120335775114  0.06396301047197023  1.0000
  H   H47       1.0  0.9093374559251683  0.9435512935890028  0.20303868180800025  1.0000
  H   H48       1.0  0.913480212479476  0.8241197466953883  0.09235124646409902  1.0000
  H   H49       1.0  0.17531005953517662  0.9600545243248445  0.13713456078572248  1.0000
  H   H50       1.0  0.1604664054726643  0.08586629897800566  0.2333380447349403  1.0000
  H   H51       1.0  0.37022292341934904  0.14381851940305962  0.12195931396049033  1.0000
  H   H52       1.0  0.23383942244630665  0.11021672371611507  0.9978652556890557  1.0000
  H   H53       1.0  0.23017808078420207  0.3055794389685261  0.9730643694850509  1.0000
  H   H54       1.0  0.41511336399427057  0.3546152396463448  0.03978354782541465  1.0000
  H   H55       1.0  0.3412619118708919  0.540207017773834  0.06784181178290763  1.0000
  H   H56       1.0  0.4111269819375522  0.5099836348357193  0.19707880539545786  1.0000
  H   H57       1.0  0.2499251294403751  0.639717373388379  0.2557670696209949  1.0000
  H   H58       1.0  0.10752802489535329  0.525753716100368  0.2971080797468351  1.0000
  H   H59       1.0  0.045540425723181274  0.34007738256370407  0.31956019216807136  1.0000
  H   H60       1.0  0.9673017026065356  0.16831264452462194  0.4171309720437829  1.0000
  H   H61       1.0  0.13483253585146668  0.15533298965072248  0.5782956788772272  1.0000
  H   H62       1.0  0.3893452970317984  0.31971869120047336  0.6416101455634579  1.0000
  H   H63       1.0  0.5787548085447933  0.511045845240491  0.6227020948088438  1.0000
  H   H64       1.0  0.772521006763046  0.707696379842713  0.6102497249996658  1.0000
  H   H65       1.0  0.8564406753846227  0.8958466568846779  0.528401965491942  1.0000
  H   H66       1.0  0.6895898685349764  0.9159723117388786  0.36892917003572945  1.0000
  H   H67       1.0  0.44656966899931066  0.7556296416327413  0.29442344223996897  1.0000
  C   C1        1.0  0.15703570922425297  0.5721689329157529  0.8218950324658691  1.0000
  C   C2        1.0  0.30675085389526446  0.6044037231739676  0.8003744033292829  1.0000
  C   C3        1.0  0.5001780906267359  0.7748129337914962  0.7615735838594313  1.0000
  C   C4        1.0  0.5422778411346819  0.9103429207277717  0.7540624021253071  1.0000
  C   C5        1.0  0.5362140352697923  0.11192591493164313  0.8533085779288371  1.0000
  C   C6        1.0  0.4052112697578209  0.1011061092647142  0.7702746500424941  1.0000
  C   C7        1.0  0.1481641930239351  0.003045439418218648  0.7365961327982516  1.0000
  C   C8        1.0  0.02766247505618338  0.9160467809062011  0.7818613684775274  1.0000
  C   C9        1.0  0.9449467105650725  0.7088081750028219  0.8162948391611258  1.0000
  C   C10       1.0  0.920837570789285  0.5766768633250593  0.7561768781032848  1.0000
  C   C11       1.0  0.03665768975171786  0.4890128902513487  0.611509701177575  1.0000
  C   C12       1.0  0.9441136873047733  0.5029226418855532  0.5119867416599031  1.0000
  C   C13       1.0  0.00282650793353625  0.6088722938832632  0.4642680167162187  1.0000
  C   C14       1.0  0.1485155792288176  0.7022723421706781  0.5045764814088057  1.0000
  C   C15       1.0  0.20203534298128184  0.8022172273568353  0.45400840386021907  1.0000
  C   C16       1.0  0.11437258484397606  0.8162173587383654  0.3604413384607203  1.0000
  C   C17       1.0  0.9736506899953011  0.7290552055842722  0.3193890835408876  1.0000
  C   C18       1.0  0.9139017080231226  0.6239904424354124  0.3693120585473962  1.0000
  C   C19       1.0  0.7707702208046701  0.5345059188106859  0.3266287579039548  1.0000
  C   C20       1.0  0.7120494006781573  0.42886612719739947  0.3723456327104683  1.0000
  C   C21       1.0  0.5668586687931377  0.33687338893435  0.32684586271964944  1.0000
  C   C22       1.0  0.5105371767698694  0.23141001444977613  0.36941656876589946  1.0000
  C   C23       1.0  0.5964624485899928  0.21388087046168994  0.4616218604886805  1.0000
  C   C24       1.0  0.7358014043756295  0.30125386744243615  0.5094755257430116  1.0000
  C   C25       1.0  0.8000709283421975  0.41156342382249667  0.4667138455270339  1.0000
  C   C26       1.0  0.06944801337240579  0.4475604971642931  0.07124962501478678  1.0000
  C   C27       1.0  0.9237745887970803  0.395433632806987  0.10201318090487921  1.0000
  C   C28       1.0  0.7666797634890902  0.2148824632355746  0.15840769728131968  1.0000
  C   C29       1.0  0.7437230751701788  0.079976553205761  0.1549737079584509  1.0000
  C   C30       1.0  0.7604510619051325  0.8968469949152932  0.036789823576280786  1.0000
  C   C31       1.0  0.9024587365272875  0.9143452370779382  0.10907079440650012  1.0000
  C   C32       1.0  0.15339433382366258  0.04430408623175994  0.14162035850858465  1.0000
  C   C33       1.0  0.26200250706475553  0.13941207598721694  0.09306927706359798  1.0000
  C   C34       1.0  0.3091558774297747  0.3436297218380391  0.05659269606160736  1.0000
  C   C35       1.0  0.32238400006077655  0.47072369952914594  0.12058255335804183  1.0000
  C   C36       1.0  0.21287472991207543  0.5467947522968679  0.27552232565057583  1.0000
  C   C37       1.0  0.3156025634102949  0.53901381005705  0.37192703159923124  1.0000
  C   C38       1.0  0.26667059773087687  0.43513014977154646  0.42377089679680724  1.0000
  C   C39       1.0  0.12285264056833857  0.3376901341625926  0.3893091640210331  1.0000
  C   C40       1.0  0.07843755345958196  0.23980342043219027  0.44345104818391207  1.0000
  C   C41       1.0  0.174293006614029  0.23212144826518172  0.5352484581756811  1.0000
  C   C42       1.0  0.3138548969402507  0.3228689506244042  0.5705275186286255  1.0000
  C   C43       1.0  0.3641955690910071  0.4259711891214506  0.516492342609076  1.0000
  C   C44       1.0  0.5062111497577195  0.5188646468540112  0.5524035369431124  1.0000
  C   C45       1.0  0.5556994785152428  0.6225013833535602  0.5026343751296097  1.0000
  C   C46       1.0  0.6997860462152837  0.7184810324191259  0.5423521703910522  1.0000
  C   C47       1.0  0.7470969834091445  0.8223071379126943  0.4963151055953614  1.0000
  C   C48       1.0  0.6525781575267809  0.8338979975079254  0.40608044349733713  1.0000
  C   C49       1.0  0.5138709120180337  0.7427164807570367  0.36427522949463825  1.0000
  C   C50       1.0  0.45873878791644224  0.6340572737178929  0.4108817560872818  1.0000
  N   N1        1.0  0.05909594519028319  0.5823850279358413  0.7234989218289662  1.0000
  N   N2        1.0  0.5305577135543322  0.9857815982253606  0.8612909146183728  1.0000
  N   N3        1.0  0.18648401061662753  0.45202756210794837  0.16366008445775881  1.0000
  N   N4        1.0  0.74625179046218  0.016570131753816407  0.039382351119327794  1.0000
  O   O1        1.0  0.351798248190988  0.7228029542909746  0.7684386274816507  1.0000
  O   O2        1.0  0.28209071842377265  0.016507558640216247  0.8013800122890488  1.0000
  O   O3        1.0  0.009099952037481438  0.7880819856432528  0.7427573411207197  1.0000
  O   O4        1.0  0.904129570944523  0.27852735462867007  0.131371657860627  1.0000
  O   O5        1.0  0.013109255087320708  0.010183025635673169  0.07482391519215707  1.0000
  O   O6        1.0  0.2626435617609518  0.2611240726911467  0.13207534197218662  1.0000
  O   O7        1.0  0.8584146392747147  0.2891506369259084  0.7869911497679702  1.0000
  O   O8        1.0  0.8705347728146878  0.12066379350130915  0.6532585073964051  1.0000
  O   O9        1.0  0.08206438016869227  0.27230967139954687  0.7923176371573071  1.0000
  O   O10       1.0  0.8914170390186322  0.12073132604565567  0.853848430651804  1.0000
  O   O11       1.0  0.5982429756666924  0.5828525471351561  0.04208690487320158  1.0000
  O   O12       1.0  0.6073929941693659  0.38873270031205376  0.9567860185479173  1.0000
  O   O13       1.0  0.616892808111864  0.5393269599477328  0.8443740297077661  1.0000
  O   O14       1.0  0.817213187905629  0.5838026965115639  0.9975237696393375  1.0000
  O   O15       1.0  0.1874457460733244  0.7510877997393746  0.09380395923408907  1.0000
  O   O16       1.0  0.40187216233617484  0.9195153695986475  0.21515690047906316  1.0000
  O   O17       1.0  0.4183667608276273  0.7601133982516783  0.07346628955667786  1.0000
  O   O18       1.0  0.3404705464174095  0.9110227636885  0.013890025592925669  1.0000
  Cl  Cl1       1.0  0.925162835970127  0.1998529732978774  0.7711726564790156  1.0000
  Cl  Cl2       1.0  0.659943646718317  0.5240012055400874  0.9603261449689604  1.0000
  Cl  Cl3       1.0  0.3378950792161084  0.8356430547019521  0.09943170935783008  1.0000
