data_image0
_chemical_formula_structural       H36C54F16P2Br2I4
_chemical_formula_sum              "H36 C54 F16 P2 Br2 I4"
_cell_length_a       9.66421898163504
_cell_length_b       10.947441329879563
_cell_length_c       13.835460645516305
_cell_angle_alpha    77.77777793491852
_cell_angle_beta     79.11429716914371
_cell_angle_gamma    76.79872647039501

_space_group_name_H-M_alt    "P 1"
_space_group_IT_number       1

loop_
  _space_group_symop_operation_xyz
  'x, y, z'

loop_
  _atom_site_type_symbol
  _atom_site_label
  _atom_site_symmetry_multiplicity
  _atom_site_fract_x
  _atom_site_fract_y
  _atom_site_fract_z
  _atom_site_occupancy
  H   H1        1.0  0.036899023169716307  0.7029852676047651  0.3838770040083532  1.0000
  H   H2        1.0  0.9631009764737897  0.2970147325626556  0.6161229955113919  1.0000
  H   H3        1.0  0.05487602685706287  0.6281738145975174  0.5629241896872803  1.0000
  H   H4        1.0  0.9451239736611791  0.37182618540485435  0.43707581058053147  1.0000
  H   H5        1.0  0.26282006129187513  0.4594895326138382  0.6152829751340296  1.0000
  H   H6        1.0  0.7371799392263669  0.5405104673885335  0.3847170251337821  1.0000
  H   H7        1.0  0.4479501213078627  0.36402683963200017  0.4874966223697871  1.0000
  H   H8        1.0  0.5520498792103793  0.6359731603703714  0.5125033778980247  1.0000
  H   H9        1.0  0.4330061738930271  0.4392192051146043  0.30771102807382955  1.0000
  H   H10       1.0  0.5669938266252149  0.5607807948877673  0.6922889721939822  1.0000
  H   H11       1.0  0.33176864492784497  0.45242579341151673  0.0555089283966881  1.0000
  H   H12       1.0  0.668231355590397  0.5475742065908549  0.9444910718711237  1.0000
  H   H13       1.0  0.2183743147268168  0.29880911251545533  0.006492318416755685  1.0000
  H   H14       1.0  0.7816256857914252  0.7011908874869163  0.9935076818510562  1.0000
  H   H15       1.0  0.9692037333132226  0.2719123090333471  0.08700784144716488  1.0000
  H   H16       1.0  0.03079626744788689  0.7280876900303187  0.9129921588226921  1.0000
  H   H17       1.0  0.8369210852148544  0.39705381862921907  0.2152619445155383  1.0000
  H   H18       1.0  0.16307891426884957  0.6029461813726988  0.784738055751944  1.0000
  H   H19       1.0  0.9521280677241291  0.5487910423914124  0.26913773237329275  1.0000
  H   H20       1.0  0.047871931759575055  0.4512089576105055  0.7308622678941895  1.0000
  H   H21       1.0  0.16811833417770142  0.8642632841284656  0.28540697472557314  1.0000
  H   H22       1.0  0.8318816654658046  0.13573671603895485  0.714593024794172  1.0000
  H   H23       1.0  0.9996817339640796  0.06860961210664988  0.24859754076402252  1.0000
  H   H24       1.0  0.00031826551962439877  0.9313903878952678  0.7514024595034599  1.0000
  H   H25       1.0  0.831127580204935  0.09775887343993764  0.12596372904167302  1.0000
  H   H26       1.0  0.168872419278769  0.9022411265619801  0.8740362712258093  1.0000
  H   H27       1.0  0.8343491479062991  0.9198381927250077  0.03863754458150209  1.0000
  H   H28       1.0  0.16565085277174496  0.08016180744286659  0.9613624549385726  1.0000
  H   H29       1.0  0.0009276686694803916  0.7128086752640611  0.07678980511653057  1.0000
  H   H30       1.0  0.9990723318487618  0.28719132473831055  0.9232101951512811  1.0000
  H   H31       1.0  0.4688097020952428  0.5494192712255856  0.1424084498791029  1.0000
  H   H32       1.0  0.5311902984229994  0.45058072877678607  0.8575915503887088  1.0000
  H   H33       1.0  0.37645274112715543  0.6599464321953821  0.048902942991704834  1.0000
  H   H34       1.0  0.6235472593910867  0.3400535678069894  0.9510970572761069  1.0000
  H   H35       1.0  0.5789802317440649  0.03512744230445797  0.21367169039130685  1.0000
  H   H36       1.0  0.4210197677396392  0.9648725576974599  0.7863283098761754  1.0000
  C   C1        1.0  0.2360102366892405  0.5792184235189975  0.334053901626264  1.0000
  C   C2        1.0  0.7639897638290014  0.4207815764833743  0.6659460986415477  1.0000
  C   C3        1.0  0.127940477961863  0.630053677128374  0.4061669625672464  1.0000
  C   C4        1.0  0.8720595216816429  0.36994632303904645  0.5938330369524988  1.0000
  C   C5        1.0  0.13790725039524257  0.5869370420397109  0.5073180245668084  1.0000
  C   C6        1.0  0.8620927501229996  0.41306295796266074  0.4926819757010034  1.0000
  C   C7        1.0  0.25369257621777713  0.4926529938512829  0.5364248586766462  1.0000
  C   C8        1.0  0.7463074243004649  0.5073470061510887  0.4635751415911656  1.0000
  C   C9        1.0  0.35909868081315394  0.43947556518832076  0.4646785979192647  1.0000
  C   C10       1.0  0.64090131867055  0.5605244348135969  0.5353214023482177  1.0000
  C   C11       1.0  0.3509887939907679  0.4820631956567705  0.3632814468122773  1.0000
  C   C12       1.0  0.6490112054929361  0.5179368043451473  0.636718553455205  1.0000
  C   C13       1.0  0.14883128495955683  0.5102918559349812  0.16514770239788962  1.0000
  C   C14       1.0  0.8511687155586852  0.4897081440673905  0.8348522978699222  1.0000
  C   C15       1.0  0.22411203656159495  0.4403953191472341  0.0912015636246153  1.0000
  C   C16       1.0  0.7758879629221089  0.5596046808546836  0.9087984366428671  1.0000
  C   C17       1.0  0.15939164336032458  0.3536538316809819  0.0636626427676177  1.0000
  C   C18       1.0  0.8406083562831813  0.6463461684864387  0.9363373567521274  1.0000
  C   C19       1.0  0.02117035705305143  0.33828746056380815  0.1087215304833038  1.0000
  C   C20       1.0  0.9788296424306526  0.6617125394381097  0.8912784697841786  1.0000
  C   C21       1.0  0.9459338170455591  0.40857301121589  0.18250230416534427  1.0000
  C   C22       1.0  0.05406618259794658  0.5914269889515307  0.817497695354401  1.0000
  C   C23       1.0  0.00998490372887306  0.49368039790055923  0.2115979920794469  1.0000
  C   C24       1.0  0.990015095754831  0.5063196021013585  0.7884020081880355  1.0000
  C   C25       1.0  0.09499274505027165  0.7750010817169587  0.18327878799244646  1.0000
  C   C26       1.0  0.9050072544334324  0.224998918284959  0.8167212122750359  1.0000
  C   C27       1.0  0.09551367500274241  0.8758107602088859  0.23128096564055992  1.0000
  C   C28       1.0  0.9044863256753014  0.12418923995898852  0.7687190338795147  1.0000
  C   C29       1.0  0.0007404125673612108  0.9913781732394891  0.20992940434979937  1.0000
  C   C30       1.0  0.9992595879508808  0.00862182676288265  0.7900705959180124  1.0000
  C   C31       1.0  0.9065910183832431  0.007341152589966302  0.14103452309310532  1.0000
  C   C32       1.0  0.09340898213499896  0.9926588474124054  0.8589654771747065  1.0000
  C   C33       1.0  0.9074193123809093  0.9074198110994159  0.0925340348043601  1.0000
  C   C34       1.0  0.09258068710279471  0.09258018890250173  0.9074659654631223  1.0000
  C   C35       1.0  0.0011023057050503426  0.7914060486364413  0.11350033676630308  1.0000
  C   C36       1.0  0.9988976939384555  0.20859395153097918  0.8864996627534422  1.0000
  C   C37       1.0  0.3940664027028648  0.6420125517997123  0.12791845033610963  1.0000
  C   C38       1.0  0.6059335967808391  0.3579874482022055  0.8720815499313727  1.0000
  C   C39       1.0  0.44973908997065676  0.7491483286753657  0.14938845547666424  1.0000
  C   C40       1.0  0.5502609095130473  0.250851671326552  0.8506115447908181  1.0000
  C   C41       1.0  0.40152310083073967  0.8756629757590275  0.10598038910780729  1.0000
  C   C42       1.0  0.5984768996875024  0.12433702424334411  0.8940196111600045  1.0000
  C   C43       1.0  0.4459152372556796  0.9764680543179718  0.13000716323569325  1.0000
  C   C44       1.0  0.5540847622280244  0.02353194568394581  0.8699928370317891  1.0000
  C   C45       1.0  0.5444663741287188  0.955580628981499  0.19574096446085856  1.0000
  C   C46       1.0  0.4555336253549853  0.04441937102041883  0.8042590358066236  1.0000
  C   C47       1.0  0.5968524943610655  0.8301787259481825  0.2371133358917685  1.0000
  C   C48       1.0  0.40314750631697843  0.1698212742196918  0.7628866636283063  1.0000
  C   C49       1.0  0.5497775539506495  0.7293169430642731  0.21494284090360577  1.0000
  C   C50       1.0  0.45022244553305457  0.27068305693764455  0.7850571593638764  1.0000
  C   C51       1.0  0.7332472097130366  0.07651342205658009  0.503058101581399  1.0000
  C   C52       1.0  0.2667527897706674  0.9234865779453376  0.4969418986860833  1.0000
  C   C53       1.0  0.7486522020486013  0.9308719136890928  0.5127962967014624  1.0000
  C   C54       1.0  0.2513477974351028  0.06912808631282508  0.48720370356601983  1.0000
  F   F1        1.0  0.3105227429959003  0.9014616325592254  0.03765908486322414  1.0000
  F   F2        1.0  0.6894772566476055  0.09853836760819529  0.962340914656521  1.0000
  F   F3        1.0  0.3902034262884536  0.0968071114087932  0.08745798810065783  1.0000
  F   F4        1.0  0.6097965731952504  0.9031928885931246  0.9125420121668245  1.0000
  F   F5        1.0  0.6943451783259743  0.8033903155728718  0.3010591329054698  1.0000
  F   F6        1.0  0.3056548223520697  0.19660968459500272  0.6989408666146049  1.0000
  F   F7        1.0  0.604108313200337  0.6085304549693449  0.2576307984171539  1.0000
  F   F8        1.0  0.395891686283367  0.39146954503257303  0.7423692018503285  1.0000
  F   F9        1.0  0.8587477464457123  0.09984894880132143  0.5207795540728473  1.0000
  F   F10       1.0  0.14125225303799158  0.9001510512005964  0.47922044619463505  1.0000
  F   F11       1.0  0.6264865306218421  0.1188021046942436  0.5761596625313609  1.0000
  F   F12       1.0  0.37351346989639983  0.8811978953081282  0.42384033773645097  1.0000
  F   F13       1.0  0.8626932161627072  0.8874400735346687  0.44565785928680013  1.0000
  F   F14       1.0  0.13730678332099686  0.11255992646724924  0.5543421409806821  1.0000
  F   F15       1.0  0.6290219508856748  0.9042051734488868  0.49068314851404465  1.0000
  F   F16       1.0  0.3709780485980291  0.09579482655303098  0.5093168517534378  1.0000
  P   P1        1.0  0.22003450014115428  0.6267621205238306  0.203701382038308  1.0000
  P   P2        1.0  0.7799654995023516  0.37323787964358995  0.7962986174814373  1.0000
  Br  Br1       1.0  0.6126482500646376  0.3201864239975399  0.14453363746992814  1.0000
  Br  Br2       1.0  0.3873517495788683  0.6798135761698806  0.8554663620498171  1.0000
  I   I1        1.0  0.6835533256630498  0.18056906676874304  0.3535408382382552  1.0000
  I   I2        1.0  0.316446673980456  0.8194309333986775  0.6464591612814901  1.0000
  I   I3        1.0  0.7823816816296459  0.8272541313489206  0.66272873132313  1.0000
  I   I4        1.0  0.21761831888859626  0.17274586865345098  0.3372712689446817  1.0000
