data_image0
_chemical_formula_structural       H112C112N16O32
_chemical_formula_sum              "H112 C112 N16 O32"
_cell_length_a       26.66395451167639
_cell_length_b       3.8081960517836766
_cell_length_c       24.043184471705658
_cell_angle_alpha    90.0
_cell_angle_beta     90.0
_cell_angle_gamma    90.0

_space_group_name_H-M_alt    "P 1"
_space_group_IT_number       1

loop_
  _space_group_symop_operation_xyz
  'x, y, z'

loop_
  _atom_site_type_symbol
  _atom_site_label
  _atom_site_symmetry_multiplicity
  _atom_site_fract_x
  _atom_site_fract_y
  _atom_site_fract_z
  _atom_site_occupancy
  H   H1        1.0  0.3624861164448608  0.4704839314039016  0.44742060947290374  1.0000
  H   H2        1.0  0.6375138834922681  0.5295160681277201  0.9474206092294739  1.0000
  H   H3        1.0  0.8624861166009444  0.029516069674866894  0.44742060947290374  1.0000
  H   H4        1.0  0.13751388333618458  0.9704839298567549  0.9474206092294739  1.0000
  H   H5        1.0  0.3205964275200286  0.6270454744265473  0.4992643247455992  1.0000
  H   H6        1.0  0.6794035724171003  0.3729545251050743  0.9992643245021692  1.0000
  H   H7        1.0  0.8205964276761121  0.8729545261838428  0.4992643247455992  1.0000
  H   H8        1.0  0.1794035722610168  0.12704547597369414  0.9992643245021692  1.0000
  H   H9        1.0  0.262590293084017  0.7501712835036256  0.33217473082231125  1.0000
  H   H10       1.0  0.7374097072281501  0.24982871865391132  0.8321747305788815  1.0000
  H   H11       1.0  0.7625902928650624  0.7498287171067646  0.33217473082231125  1.0000
  H   H12       1.0  0.23740970707206657  0.25017128242485714  0.8321747305788815  1.0000
  H   H13       1.0  0.1482486736267492  0.18452723033281418  0.36056137739166155  1.0000
  H   H14       1.0  0.8517513263103798  0.8154727691988075  0.8605613771482317  1.0000
  H   H15       1.0  0.6482486737828327  0.3154727707459543  0.36056137739166155  1.0000
  H   H16       1.0  0.3517513261542962  0.6845272287856675  0.8605613771482317  1.0000
  H   H17       1.0  0.12407301694695266  0.3370351033788921  0.45742979649566284  1.0000
  H   H18       1.0  0.8759269829901764  0.6629648961527297  0.9574297966681513  1.0000
  H   H19       1.0  0.6240730171030362  0.16296489769987638  0.45742979649566284  1.0000
  H   H20       1.0  0.37592698320913087  0.8370351018317453  0.9574297966681513  1.0000
  H   H21       1.0  0.18117532033309336  0.19029794426171154  0.5361617041690273  1.0000
  H   H22       1.0  0.8188246796040356  0.8097020552699101  0.036161703996538876  1.0000
  H   H23       1.0  0.6811753201141388  0.3097020568170569  0.5361617041690273  1.0000
  H   H24       1.0  0.3188246798229902  0.6902979453404801  0.036161703996538876  1.0000
  H   H25       1.0  0.26226191306086  0.906711078696361  0.5181300378350525  1.0000
  H   H26       1.0  0.737738086876269  0.09328892083526076  0.018130038078482385  1.0000
  H   H27       1.0  0.7622619128419054  0.5932889219140293  0.5181300378350525  1.0000
  H   H28       1.0  0.2377380870952235  0.40671107761759245  0.018130038078482385  1.0000
  H   H29       1.0  0.6295796316577416  0.9959143143966055  0.24136866923054087  1.0000
  H   H30       1.0  0.37042036827938735  0.004085685135016213  0.7413686694030294  1.0000
  H   H31       1.0  0.12957963187669622  0.5040856862137847  0.24136866923054087  1.0000
  H   H32       1.0  0.8704203680604327  0.49591431331783703  0.7413686694030294  1.0000
  H   H33       1.0  0.6453024888887053  0.7961834944342917  0.3034397306473952  1.0000
  H   H34       1.0  0.3546975110484235  0.2038165050973301  0.8034397304039654  1.0000
  H   H35       1.0  0.14530248873262183  0.7038165061760986  0.3034397306473952  1.0000
  H   H36       1.0  0.8546975112045071  0.2961834933555232  0.8034397304039654  1.0000
  H   H37       1.0  0.3631408340334449  0.4767229878172056  0.3495091925068883  1.0000
  H   H38       1.0  0.6368591662787222  0.5232770143403314  0.8495091926793767  1.0000
  H   H39       1.0  0.8631408338144902  0.02327701326156287  0.3495091925068883  1.0000
  H   H40       1.0  0.13685916612263865  0.9767229862700588  0.8495091926793767  1.0000
  H   H41       1.0  0.4637152926654401  0.3967910893905405  0.26258006826963914  1.0000
  H   H42       1.0  0.5362847072716889  0.6032089101410812  0.7625800680262093  1.0000
  H   H43       1.0  0.9637152928215236  0.103208911688228  0.26258006826963914  1.0000
  H   H44       1.0  0.03628470749064343  0.8967910904693089  0.7625800680262093  1.0000
  H   H45       1.0  0.5467343035563654  0.25405578569066756  0.22563041790009405  1.0000
  H   H46       1.0  0.45326569638076347  0.7459442138409542  0.7256304176566643  1.0000
  H   H47       1.0  0.0467343034002819  0.2459442127621857  0.22563041790009405  1.0000
  H   H48       1.0  0.9532656965368471  0.754055786769436  0.7256304176566643  1.0000
  H   H49       1.0  0.5872199569326219  0.7794135988901566  0.38234444238525  1.0000
  H   H50       1.0  0.41278004300450705  0.2205864006414652  0.8823444425577385  1.0000
  H   H51       1.0  0.08721995677653836  0.7205863990943184  0.38234444238525  1.0000
  H   H52       1.0  0.9127800431605906  0.27941360043730323  0.8823444425577385  1.0000
  H   H53       1.0  0.5033335068180859  0.9355375068810609  0.42003548289889087  1.0000
  H   H54       1.0  0.49666649311904304  0.06446249265056082  0.9200354830713793  1.0000
  H   H55       1.0  0.003333506662002317  0.5644624937293293  0.42003548289889087  1.0000
  H   H56       1.0  0.9966664932751266  0.43553750842820765  0.9200354830713793  1.0000
  H   H57       1.0  0.38253085698647665  0.9620083105448546  0.5486580737890158  1.0000
  H   H58       1.0  0.6174691429506522  0.037991691612682364  0.04865807403244559  1.0000
  H   H59       1.0  0.882530856767522  0.5379916900655357  0.5486580737890158  1.0000
  H   H60       1.0  0.11746914316960691  0.4620083094660861  0.04865807403244559  1.0000
  H   H61       1.0  0.42359751270404805  0.1363725693052897  0.4976593164720315  1.0000
  H   H62       1.0  0.5764024872330809  0.863627430226332  0.99765931664452  1.0000
  H   H63       1.0  0.9235975128601317  0.3636274317734788  0.4976593164720315  1.0000
  H   H64       1.0  0.07640248707699733  0.6363725703840581  0.99765931664452  1.0000
  H   H65       1.0  0.4831227297645917  0.20609650325969708  0.6653869939244814  1.0000
  H   H66       1.0  0.5168772701725372  0.7939034962719247  0.16538699375199306  1.0000
  H   H67       1.0  0.9831227299206753  0.2939034951931562  0.6653869939244814  1.0000
  H   H68       1.0  0.016877270391491794  0.7060965043384655  0.16538699375199306  1.0000
  H   H69       1.0  0.5965246142703531  0.6577278679827491  0.6399535343625993  1.0000
  H   H70       1.0  0.4034753856667758  0.3422721341747879  0.13995353419011086  1.0000
  H   H71       1.0  0.09652461411426955  0.8422721326276412  0.6399535343625993  1.0000
  H   H72       1.0  0.9034753858228594  0.15772786690398058  0.13995353419011086  1.0000
  H   H73       1.0  0.6209320542738608  0.8337347649191768  0.5441175903880556  1.0000
  H   H74       1.0  0.3790679456632682  0.16626523461244508  0.04411759021556725  1.0000
  H   H75       1.0  0.12093205449281538  0.6662652356912137  0.5441175903880556  1.0000
  H   H76       1.0  0.8790679458193518  0.3337347638404082  0.04411759021556725  1.0000
  H   H77       1.0  0.5643465226964166  0.7002579866524903  0.4643942711973004  1.0000
  H   H78       1.0  0.43565347724071235  0.2997420128791314  0.964394271369789  1.0000
  H   H79       1.0  0.0643465229153712  0.7997420139578999  0.4643942711973004  1.0000
  H   H80       1.0  0.9356534773967958  0.20025798819963708  0.964394271369789  1.0000
  H   H81       1.0  0.48344968276761247  0.40740700554881304  0.48042694525732915  1.0000
  H   H82       1.0  0.5165503171695165  0.5925929939828087  0.9804269450138993  1.0000
  H   H83       1.0  0.983449682923696  0.09259299552995547  0.48042694525732915  1.0000
  H   H84       1.0  0.01655031738847109  0.9074070040016663  0.9804269450138993  1.0000
  H   H85       1.0  0.11722893611415326  0.5608022436239096  0.7616697173184751  1.0000
  H   H86       1.0  0.8827710638229757  0.4391977585336273  0.26166971714598675  1.0000
  H   H87       1.0  0.6172289362702368  0.9391977569864806  0.7616697173184751  1.0000
  H   H88       1.0  0.3827710636668922  0.060802242545141154  0.26166971714598675  1.0000
  H   H89       1.0  0.09812908354813635  0.34831190462968004  0.7015052843706552  1.0000
  H   H90       1.0  0.9018709163889925  0.6516880949019417  0.20150528419816682  1.0000
  H   H91       1.0  0.5981290837042199  0.1516880938231732  0.7015052843706552  1.0000
  H   H92       1.0  0.40187091623290905  0.8483119057084485  0.20150528419816682  1.0000
  H   H93       1.0  0.3823920178657311  0.9674643505484327  0.6454217555191902  1.0000
  H   H94       1.0  0.6176079820713978  0.032535651609104245  0.14542175534670182  1.0000
  H   H95       1.0  0.8823920180218146  0.5325356500619575  0.6454217555191902  1.0000
  H   H96       1.0  0.11760798229035244  0.4674643494696642  0.14542175534670182  1.0000
  H   H97       1.0  0.2835442592241607  0.9062240738324356  0.7357954658967429  1.0000
  H   H98       1.0  0.7164557407129682  0.09377592569918614  0.23579546572425453  1.0000
  H   H99       1.0  0.7835442593802442  0.5937759267779547  0.7357954658967429  1.0000
  H   H100      1.0  0.21645574055688468  0.4062240727536671  0.23579546572425453  1.0000
  H   H101      1.0  0.20078218621531133  0.7791459472288083  0.7751358112288311  1.0000
  H   H102      1.0  0.7992178137218177  0.22085405230281352  0.27513581105634266  1.0000
  H   H103      1.0  0.7007821863713949  0.7208540507556668  0.7751358112288311  1.0000
  H   H104      1.0  0.29921781394077224  0.27914594877595494  0.27513581105634266  1.0000
  H   H105      1.0  0.15511992447289688  0.3080733486529657  0.6200570081531465  1.0000
  H   H106      1.0  0.844880075464232  0.691926650878656  0.12005700798065806  1.0000
  H   H107      1.0  0.6551199246289805  0.19192665242580276  0.6200570081531465  1.0000
  H   H108      1.0  0.3448800753081485  0.8080733471058189  0.12005700798065806  1.0000
  H   H109      1.0  0.2387472873617562  0.4461829608809541  0.5801302949871057  1.0000
  H   H110      1.0  0.7612527125753726  0.5538170386506676  0.08013029481461717  1.0000
  H   H111      1.0  0.7387472875178397  0.053817040197814345  0.5801302949871057  1.0000
  H   H112      1.0  0.26125271241928916  0.9461829619597226  0.08013029481461717  1.0000
  C   C1        1.0  0.2512257533692757  0.8672534226416996  0.4290350536610184  1.0000
  C   C2        1.0  0.7487742465678532  0.1327465768899222  0.9290350538335067  1.0000
  C   C3        1.0  0.7512257531503211  0.6327465753427755  0.4290350536610184  1.0000
  C   C4        1.0  0.2487742467868078  0.36725342418884627  0.9290350538335067  1.0000
  C   C5        1.0  0.21790503458351068  0.9443222410557447  0.38458522916885596  1.0000
  C   C6        1.0  0.7820949657286564  0.055677761101792254  0.8845852293413444  1.0000
  C   C7        1.0  0.7179050343645561  0.5556777595546455  0.38458522916885596  1.0000
  C   C8        1.0  0.28209496557257285  0.44432223997697623  0.8845852293413444  1.0000
  C   C9        1.0  0.17244925496652852  0.11688008283909748  0.3954783760524651  1.0000
  C   C10       1.0  0.8275507449706004  0.8831199166925242  0.8954783762249536  1.0000
  C   C11       1.0  0.6724492547475739  0.383119918239671  0.3954783760524651  1.0000
  C   C12       1.0  0.327550745189555  0.616880083917866  0.8954783762249536  1.0000
  C   C13       1.0  0.15949493418681293  0.20451155859878  0.44949492454787604  1.0000
  C   C14       1.0  0.840505065750316  0.7954884409328418  0.9494949243044463  1.0000
  C   C15       1.0  0.6594949343428965  0.29548843985407325  0.44949492454787604  1.0000
  C   C16       1.0  0.3405050659692706  0.7045115596775485  0.9494949243044463  1.0000
  C   C17       1.0  0.19163870226985089  0.12460862664298457  0.4937591089055025  1.0000
  C   C18       1.0  0.808361297667278  0.8753913728886372  0.9937591086620726  1.0000
  C   C19       1.0  0.6916387024259344  0.3753913718098687  0.4937591089055025  1.0000
  C   C20       1.0  0.3083612978862326  0.624608627721753  0.9937591086620726  1.0000
  C   C21       1.0  0.23709809087888856  0.9611666206852953  0.4833986539377696  1.0000
  C   C22       1.0  0.7629019094332785  0.03883337884632642  0.9833986536943399  1.0000
  C   C23       1.0  0.7370980906599339  0.5388333799250948  0.4833986539377696  1.0000
  C   C24       1.0  0.2629019092771949  0.46116661960652683  0.9833986536943399  1.0000
  C   C25       1.0  0.2990762681697446  0.6918422066967843  0.4171735425398267  1.0000
  C   C26       1.0  0.7009237317673843  0.3081577928348374  0.9171735427123151  1.0000
  C   C27       1.0  0.7990762679507899  0.8081577939136059  0.4171735425398267  1.0000
  C   C28       1.0  0.20092373198633892  0.19184220561801582  0.9171735427123151  1.0000
  C   C29       1.0  0.47739062052576636  0.17527904050196128  0.3443582641784989  1.0000
  C   C30       1.0  0.5226093794113625  0.8247209590296605  0.8443582643509874  1.0000
  C   C31       1.0  0.9773906206818499  0.3247209605768072  0.3443582641784989  1.0000
  C   C32       1.0  0.022609379630317176  0.6752790389548146  0.8443582643509874  1.0000
  C   C33       1.0  0.4903357071163112  0.259028147864913  0.2890298066871262  1.0000
  C   C34       1.0  0.5096642928208177  0.740971854292624  0.7890298068596145  1.0000
  C   C35       1.0  0.9903357072723948  0.24097185321385547  0.2890298066871262  1.0000
  C   C36       1.0  0.00966429266473418  0.7590281463177663  0.7890298068596145  1.0000
  C   C37       1.0  0.5371811046905163  0.17942402930646537  0.26808770600189696  1.0000
  C   C38       1.0  0.4628188952466126  0.8205759702251564  0.7680877057584671  1.0000
  C   C39       1.0  0.03718110453443276  0.32057596914638786  0.26808770600189696  1.0000
  C   C40       1.0  0.9628188954026962  0.6794240303852339  0.7680877057584671  1.0000
  C   C41       1.0  0.573342851050298  0.006254974711410446  0.3013614057042578  1.0000
  C   C42       1.0  0.4266571488868309  0.9937450248202112  0.8013614058767463  1.0000
  C   C43       1.0  0.07334285126925266  0.49374502636735806  0.3013614057042578  1.0000
  C   C44       1.0  0.9266571486678763  0.5062549731642637  0.8013614058767463  1.0000
  C   C45       1.0  0.5600385382993648  0.9192888266244292  0.3567400973899163  1.0000
  C   C46       1.0  0.4399614616377641  0.08071117290719247  0.8567400975624047  1.0000
  C   C47       1.0  0.06003853814328128  0.580711173985961  0.3567400973899163  1.0000
  C   C48       1.0  0.9399614617938477  0.41928882554566077  0.8567400975624047  1.0000
  C   C49       1.0  0.5132866992406045  0.0036826911769501126  0.3774795601922256  1.0000
  C   C50       1.0  0.4867133006965244  0.9963173083546717  0.877479560364714  1.0000
  C   C51       1.0  0.013286699459559133  0.4963173099018183  0.3774795601922256  1.0000
  C   C52       1.0  0.9867133008526079  0.5036826922557186  0.877479560364714  1.0000
  C   C53       1.0  0.42906409193692857  0.2726761269324971  0.36820615839878246  1.0000
  C   C54       1.0  0.5709359080002003  0.7273238725991247  0.8682061585712709  1.0000
  C   C55       1.0  0.929064092093012  0.22732387152035616  0.36820615839878246  1.0000
  C   C56       1.0  0.07093590784411684  0.7726761280112656  0.8682061585712709  1.0000
  C   C57       1.0  0.4941397486344432  0.3513312213464795  0.5692543101396021  1.0000
  C   C58       1.0  0.5058602513026857  0.6486687781851423  0.06925430996711376  1.0000
  C   C59       1.0  0.9941397484154886  0.14866877973228898  0.5692543101396021  1.0000
  C   C60       1.0  0.005860251521640326  0.851331222425248  0.06925430996711376  1.0000
  C   C61       1.0  0.5271811645134793  0.42146690406032  0.614288150863746  1.0000
  C   C62       1.0  0.4728188357986878  0.5785330954713017  0.11428815069125757  1.0000
  C   C63       1.0  0.027181164357395753  0.07853309701844852  0.614288150863746  1.0000
  C   C64       1.0  0.9728188355797331  0.9214669051390885  0.11428815069125757  1.0000
  C   C65       1.0  0.5724870950149354  0.5982068331101265  0.6045729727318773  1.0000
  C   C66       1.0  0.42751290492219346  0.4017931664214953  0.10457297297530714  1.0000
  C   C67       1.0  0.07248709523389009  0.9017931675002638  0.6045729727318773  1.0000
  C   C68       1.0  0.927512905078277  0.09820683465727319  0.10457297297530714  1.0000
  C   C69       1.0  0.5855940506935073  0.6976730409548051  0.5511233171127424  1.0000
  C   C70       1.0  0.4144059496186596  0.3023269585768166  0.051123316940253925  1.0000
  C   C71       1.0  0.08559405053742386  0.8023269570296698  0.5511233171127424  1.0000
  C   C72       1.0  0.9144059493997051  0.1976730425019519  0.051123316940253925  1.0000
  C   C73       1.0  0.5537307586365114  0.6248913521365047  0.5063040594446023  1.0000
  C   C74       1.0  0.4462692413006175  0.37510864739511707  0.0063040596880321416  1.0000
  C   C75       1.0  0.0537307584804279  0.8751086458479703  0.5063040594446023  1.0000
  C   C76       1.0  0.946269241456701  0.12489135368365142  0.0063040596880321416  1.0000
  C   C77       1.0  0.5084194317112075  0.4568096800544708  0.5155020124137795  1.0000
  C   C78       1.0  0.4915805686009595  0.5431903194771509  0.01550201224129105  1.0000
  C   C79       1.0  0.008419431555124032  0.04319031839838247  0.5155020124137795  1.0000
  C   C80       1.0  0.9915805683820048  0.9568096811332393  0.01550201224129105  1.0000
  C   C81       1.0  0.44646767923290853  0.17073958671204859  0.5798874735752052  1.0000
  C   C82       1.0  0.5535323207042204  0.8292604128195732  0.07988747340271683  1.0000
  C   C83       1.0  0.9464676790139539  0.3292604143667199  0.5798874735752052  1.0000
  C   C84       1.0  0.05353232092317498  0.6707395851649018  0.07988747340271683  1.0000
  C   C85       1.0  0.2670381783347987  0.6881733829781482  0.6545104974974901  1.0000
  C   C86       1.0  0.7329618219773684  0.3118266191793887  0.15451049732500174  1.0000
  C   C87       1.0  0.7670381781158441  0.811826617632242  0.6545104974974901  1.0000
  C   C88       1.0  0.23296182182128486  0.1881733818993798  0.15451049732500174  1.0000
  C   C89       1.0  0.25560530404503395  0.776763514739349  0.7100441848745217  1.0000
  C   C90       1.0  0.7443946962671331  0.2232364847922728  0.21004418511795148  1.0000
  C   C91       1.0  0.7556053038260794  0.7232364858710413  0.7100441848745217  1.0000
  C   C92       1.0  0.24439469611104953  0.27676351366058044  0.21004418511795148  1.0000
  C   C93       1.0  0.20898869999045963  0.7070383807416828  0.7322800638459263  1.0000
  C   C94       1.0  0.7910112999466693  0.2929616214158542  0.23228006408935603  1.0000
  C   C95       1.0  0.7089887001465432  0.7929616198687075  0.7322800638459263  1.0000
  C   C96       1.0  0.29101130016562393  0.2070383796629143  0.23228006408935603  1.0000
  C   C97       1.0  0.17142767394080063  0.5396419333604039  0.7002624381896444  1.0000
  C   C98       1.0  0.8285723259963282  0.46035806617121783  0.2002624384330742  1.0000
  C   C99       1.0  0.6714276740968841  0.9603580672499863  0.7002624381896444  1.0000
  C   C100      1.0  0.32857232584024476  0.039641932281635456  0.2002624384330742  1.0000
  C   C101      1.0  0.1832232074901198  0.44522890548291383  0.6447700706303421  1.0000
  C   C102      1.0  0.8167767924470091  0.5547710966746231  0.1447700708737719  1.0000
  C   C103      1.0  0.6832232072711651  0.054771095595854656  0.6447700706303421  1.0000
  C   C104      1.0  0.31677679266596376  0.9452289039357671  0.1447700708737719  1.0000
  C   C105      1.0  0.22987383725530672  0.5197920572058939  0.6227424311292911  1.0000
  C   C106      1.0  0.7701261626818222  0.4802079423257278  0.12274243137272087  1.0000
  C   C107      1.0  0.7298738374113903  0.9802079434044962  0.6227424311292911  1.0000
  C   C108      1.0  0.2701261625257387  0.019792056127125437  0.12274243137272087  1.0000
  C   C109      1.0  0.31537116770573553  0.7724396013231035  0.6294119935655278  1.0000
  C   C110      1.0  0.6846288322313934  0.22756039820851817  0.1294119933930394  1.0000
  C   C111      1.0  0.8153711678618192  0.7275603992872867  0.6294119935655278  1.0000
  C   C112      1.0  0.18462883207530983  0.2724396002443351  0.1294119933930394  1.0000
  N   N1        1.0  0.3296610308178687  0.5962148584594393  0.45830251990818305  1.0000
  N   N2        1.0  0.6703389691192603  0.4037851410721825  0.9583025200806715  1.0000
  N   N3        1.0  0.8296610309739523  0.903785142150951  0.45830251990818305  1.0000
  N   N4        1.0  0.17033896933821482  0.09621486000658602  0.9583025200806715  1.0000
  N   N5        1.0  0.6195528109968033  0.9301703409783425  0.2808620982776557  1.0000
  N   N6        1.0  0.38044718894032575  0.06982965855327919  0.7808620980342259  1.0000
  N   N7        1.0  0.11955281121575775  0.5698296596320477  0.2808620982776557  1.0000
  N   N8        1.0  0.8804471890964093  0.4301703425254893  0.7808620980342259  1.0000
  N   N9        1.0  0.41523747706483394  0.09082153211046048  0.5384663177723213  1.0000
  N   N10       1.0  0.5847625232473331  0.9091784674211613  0.038466317599832885  1.0000
  N   N11       1.0  0.9152374768458793  0.4091784663423928  0.5384663177723213  1.0000
  N   N12       1.0  0.08476252309124964  0.5908215331892289  0.038466317599832885  1.0000
  N   N13       1.0  0.12558285038078826  0.47443368603718916  0.7227336794944643  1.0000
  N   N14       1.0  0.8744171499313789  0.5255663134944325  0.22273367932197594  1.0000
  N   N15       1.0  0.6255828501618337  0.025566315041579322  0.7227336794944643  1.0000
  N   N16       1.0  0.3744171497752953  0.9744336844900424  0.22273367932197594  1.0000
  O   O1        1.0  0.31131833413400567  0.6321397237078872  0.36636545297758166  1.0000
  O   O2        1.0  0.6886816658031232  0.3678602784496498  0.8663654527341518  1.0000
  O   O3        1.0  0.8113183342900893  0.867860276902503  0.36636545297758166  1.0000
  O   O4        1.0  0.18868166564703967  0.13213972262911872  0.8663654527341518  1.0000
  O   O5        1.0  0.2277723391457348  0.8557881016849307  0.3313556147013508  1.0000
  O   O6        1.0  0.7722276607913942  0.14421189784669114  0.8313556148738391  1.0000
  O   O7        1.0  0.7277723389267802  0.6442118989254597  0.3313556147013508  1.0000
  O   O8        1.0  0.27222766101034873  0.3557881032320774  0.8313556148738391  1.0000
  O   O9        1.0  0.3956228235155649  0.39109087340774396  0.33106662843964424  1.0000
  O   O10       1.0  0.604377176421564  0.6089091261238777  0.8310666281962145  1.0000
  O   O11       1.0  0.8956228236716485  0.10890912504510931  0.33106662843964424  1.0000
  O   O12       1.0  0.10437717664051861  0.8910908744865125  0.8310666281962145  1.0000
  O   O13       1.0  0.4186311675978857  0.25280572137274193  0.41900017287041713  1.0000
  O   O14       1.0  0.5813688323392432  0.747194280784795  0.9190001726269873  1.0000
  O   O15       1.0  0.9186311677539691  0.24719427970602656  0.41900017287041713  1.0000
  O   O16       1.0  0.08136883218315968  0.7528057198255952  0.9190001726269873  1.0000
  O   O17       1.0  0.43500085123985494  0.09075985723952258  0.6301762941523168  1.0000
  O   O18       1.0  0.564999148697274  0.9092401449180144  0.13017629397982836  1.0000
  O   O19       1.0  0.9350008513959385  0.40924014383924595  0.6301762941523168  1.0000
  O   O20       1.0  0.06499914854119049  0.5907598556923759  0.13017629397982836  1.0000
  O   O21       1.0  0.51723755806591  0.32184701715289293  0.6670422459584553  1.0000
  O   O22       1.0  0.4827624422462571  0.6781529823787289  0.1670422462018852  1.0000
  O   O23       1.0  0.017237557909826447  0.17815298392587553  0.6670422459584553  1.0000
  O   O24       1.0  0.9827624420273025  0.8218470156057461  0.1670422462018852  1.0000
  O   O25       1.0  0.34915831993049234  0.9055956398002962  0.6648038045380463  1.0000
  O   O26       1.0  0.6508416800066367  0.09440435973132559  0.16480380478147624  1.0000
  O   O27       1.0  0.8491583197115378  0.5944043608100942  0.6648038045380463  1.0000
  O   O28       1.0  0.1508416802255912  0.4055956387215277  0.16480380478147624  1.0000
  O   O29       1.0  0.3258107647234286  0.7310717074810277  0.5789262614684149  1.0000
  O   O30       1.0  0.6741892355887384  0.26892829205059415  0.07892626171184465  1.0000
  O   O31       1.0  0.825810764504474  0.7689282905034474  0.5789262614684149  1.0000
  O   O32       1.0  0.17418923543265488  0.23107170902817434  0.07892626171184465  1.0000
