data_image0
_chemical_formula_structural       H72C56N8F12Br12
_chemical_formula_sum              "H72 C56 N8 F12 Br12"
_cell_length_a       8.928815209437504
_cell_length_b       25.939293028207583
_cell_length_c       9.377020465075875
_cell_angle_alpha    90.0
_cell_angle_beta     118.1186534517612
_cell_angle_gamma    90.0

_space_group_name_H-M_alt    "P 1"
_space_group_IT_number       1

loop_
  _space_group_symop_operation_xyz
  'x, y, z'

loop_
  _atom_site_type_symbol
  _atom_site_label
  _atom_site_symmetry_multiplicity
  _atom_site_fract_x
  _atom_site_fract_y
  _atom_site_fract_z
  _atom_site_occupancy
  H   H1        1.0  0.5604106127730464  0.19427379090555807  0.6098388032180948  1.0000
  H   H2        1.0  0.9395893877392444  0.6942737907473505  0.8901611970772567  1.0000
  H   H3        1.0  0.4395893875684808  0.8057262091635424  0.3901611969788062  1.0000
  H   H4        1.0  0.060410612602282775  0.30572620932174993  0.10983880311964431  1.0000
  H   H5        1.0  0.5303458946638374  0.07486933926410858  0.5532783116995742  1.0000
  H   H6        1.0  0.9696541058484536  0.5748693391059011  0.9467216885957774  1.0000
  H   H7        1.0  0.46965410567768995  0.9251306608049918  0.4467216884973269  1.0000
  H   H8        1.0  0.030345894493073698  0.4251306609631994  0.05327831160112364  1.0000
  H   H9        1.0  0.8541133444736856  0.12267416218860161  0.6275908424742425  1.0000
  H   H10       1.0  0.6458866543321345  0.622674162030394  0.8724091565854687  1.0000
  H   H11       1.0  0.14588665473488782  0.8773258378804988  0.3724091576958698  1.0000
  H   H12       1.0  0.35411334430292196  0.37732583803870634  0.127590842375792  1.0000
  H   H13       1.0  0.6356918027975228  0.28452610840142045  0.28235114064836164  1.0000
  H   H14       1.0  0.8643081976319273  0.7845261082432129  0.21764885957974453  1.0000
  H   H15       1.0  0.3643081975440043  0.71547389166768  0.7176488595485393  1.0000
  H   H16       1.0  0.13569180270959993  0.21547389182588758  0.7823511406171565  1.0000
  H   H17       1.0  0.819500596786703  0.26291401514234913  0.4595045789347829  1.0000
  H   H18       1.0  0.6804994030692303  0.7629140149841416  0.040495420084471684  1.0000
  H   H19       1.0  0.18049940298130734  0.7370859849267513  0.5404954200532665  1.0000
  H   H20       1.0  0.3195005966987801  0.23708598508495884  0.9595045789035777  1.0000
  H   H21       1.0  0.6164982285368862  0.2533466938691699  0.44293900610039205  1.0000
  H   H22       1.0  0.8835017707596102  0.7533466940964779  0.05706099410092546  1.0000
  H   H23       1.0  0.38350177067168717  0.7466533061999305  0.5570609940697201  1.0000
  H   H24       1.0  0.11649822844896322  0.24665330597262256  0.9429390060691869  1.0000
  H   H25       1.0  0.8076830030892875  0.08932770247362877  0.8388306963321038  1.0000
  H   H26       1.0  0.6923169962900494  0.5893277023154213  0.661169303936459  1.0000
  H   H27       1.0  0.1923169961192858  0.9106722975954716  0.16116930383800848  1.0000
  H   H28       1.0  0.3076830040514778  0.4106722977536792  0.338830696260442  1.0000
  H   H29       1.0  0.4666060683160818  0.1871500396992682  0.8287145232507347  1.0000
  H   H30       1.0  0.03339393193752239  0.6871500399265762  0.6712854769149611  1.0000
  H   H31       1.0  0.5333939320254454  0.8128499599843168  0.17128547694616628  1.0000
  H   H32       1.0  0.9666060684040048  0.3128499601425243  0.32871452328193995  1.0000
  H   H33       1.0  0.8793282486082187  0.21148477462491078  0.9135162527856425  1.0000
  H   H34       1.0  0.6206717507711182  0.7114847744667032  0.5864837474829203  1.0000
  H   H35       1.0  0.12067175060035472  0.7885152254441896  0.08648374738446982  1.0000
  H   H36       1.0  0.37932824957040884  0.28851522560239723  0.4135162527139807  1.0000
  H   H37       1.0  0.6933828409859838  0.0252746518298345  0.17469202973396236  1.0000
  H   H38       1.0  0.8066171594434663  0.5252746516716269  0.32530797049414384  1.0000
  H   H39       1.0  0.30661715935554346  0.9747253482392659  0.8253079704629386  1.0000
  H   H40       1.0  0.1933828408980607  0.47472534839747355  0.6746920297027571  1.0000
  H   H41       1.0  0.7117578206909212  0.05561089573379471  0.012953376196198626  1.0000
  H   H42       1.0  0.7882421786055752  0.5556108959611027  0.48704662400511894  1.0000
  H   H43       1.0  0.28824217965060595  0.9443891043353058  0.9870466240007023  1.0000
  H   H44       1.0  0.21175782060299822  0.44438910410799776  0.5129533761649935  1.0000
  H   H45       1.0  0.509171965209363  0.04688252600707187  0.9987109615452817  1.0000
  H   H46       1.0  0.9908280335964572  0.5468825262343798  0.5012890375144293  1.0000
  H   H47       1.0  0.49082803342569364  0.9531174740620286  0.001289037415978735  1.0000
  H   H48       1.0  0.009171966171553227  0.4531174738347206  0.4987109614736201  1.0000
  H   H49       1.0  0.5100315040312354  0.10292417287922064  0.5538849846397809  1.0000
  H   H50       1.0  0.9899684953481015  0.6029241731065287  0.946115015628782  1.0000
  H   H51       1.0  0.489968495177338  0.8970758268043643  0.4461150155303315  1.0000
  H   H52       1.0  0.010031503860471906  0.3970758269625718  0.053884984541330304  1.0000
  H   H53       1.0  0.8240267863899412  0.19390341458151747  0.6219824930468572  1.0000
  H   H54       1.0  0.6759732135488328  0.6939034144233099  0.8780175060396427  1.0000
  H   H55       1.0  0.1759732133780692  0.806096585487583  0.3780175059411922  1.0000
  H   H56       1.0  0.32402678621917763  0.30609658564579056  0.12198249294840666  1.0000
  H   H57       1.0  0.4843095360193495  0.21027890868376944  0.5955121000285065  1.0000
  H   H58       1.0  0.015690464234254728  0.710278908525562  0.9044879001371893  1.0000
  H   H59       1.0  0.5156904643221778  0.7897210913853311  0.4044879001683946  1.0000
  H   H60       1.0  0.9843095361072725  0.28972109154353853  0.09551210005971171  1.0000
  H   H61       1.0  0.7976460176793958  0.19750737286589862  0.8907573414488018  1.0000
  H   H62       1.0  0.702353982832895  0.6975073730932067  0.6092426588465497  1.0000
  H   H63       1.0  0.20235398266213137  0.8024926268176864  0.10924265874809927  1.0000
  H   H64       1.0  0.29764601750863223  0.30249262697589385  0.39075734135035123  1.0000
  H   H65       1.0  0.778317910457238  0.11127825946763889  0.8714575914957754  1.0000
  H   H66       1.0  0.7216820900550529  0.6112782593094314  0.6285424087995762  1.0000
  H   H67       1.0  0.22168208988428925  0.8887217406014616  0.1285424087011257  1.0000
  H   H68       1.0  0.27831791028647435  0.3887217407596691  0.3714575913973248  1.0000
  H   H69       1.0  0.49471893998621047  0.115979014028197  0.8321514845633763  1.0000
  H   H70       1.0  0.005281059134439917  0.6159790142555049  0.6678485155755307  1.0000
  H   H71       1.0  0.505281059222363  0.8840209860409034  0.167848515606736  1.0000
  H   H72       1.0  0.9947189400741334  0.3840209858135955  0.33215148459458144  1.0000
  C   C1        1.0  0.14713762162181063  0.14151324039588334  0.37595522862123826  1.0000
  C   C2        1.0  0.3528623779754361  0.6415132406231914  0.12404477026836061  1.0000
  C   C3        1.0  0.8528623781461998  0.8584867596732171  0.624044770366811  1.0000
  C   C4        1.0  0.6471376217925742  0.3584867594459092  0.8759552287196888  1.0000
  C   C5        1.0  0.17185623525397561  0.04749089146957077  0.38507040752008903  1.0000
  C   C6        1.0  0.328143764916788  0.5474908916968787  0.11492959257836144  1.0000
  C   C7        1.0  0.8281437650875515  0.9525091085995296  0.6149295926768119  1.0000
  C   C8        1.0  0.6718562354247393  0.4525091083722217  0.8850704076185395  1.0000
  C   C9        1.0  0.1686264671174353  0.09530795027110388  0.159152912124081  1.0000
  C   C10       1.0  0.3313735330533283  0.5953079501128964  0.34084708797436947  1.0000
  C   C11       1.0  0.831373533224092  0.9046920497979966  0.84084708807282  1.0000
  C   C12       1.0  0.668626467288199  0.4046920499562041  0.6591529122225315  1.0000
  C   C13       1.0  0.15622736528103187  0.09419933640222439  0.4509136615309215  1.0000
  C   C14       1.0  0.34377263488973175  0.5941993362440169  0.049086338567528975  1.0000
  C   C15       1.0  0.8437726350604954  0.9058006636668762  0.5490863386659794  1.0000
  C   C16       1.0  0.6562273654517954  0.40580066382508356  0.950913661629372  1.0000
  C   C17       1.0  0.1561893217155577  0.14114104058344043  0.23121231557634206  1.0000
  C   C18       1.0  0.3438106773222521  0.6411410408107484  0.26878768449531976  1.0000
  C   C19       1.0  0.8438106774930157  0.85885895948566  0.7687876845937703  1.0000
  C   C20       1.0  0.6561893218863213  0.35885895925835204  0.7312123156747925  1.0000
  C   C21       1.0  0.17561191393152992  0.04903293002692477  0.2380990697121922  1.0000
  C   C22       1.0  0.3243880862392337  0.5490329298687172  0.2619009303862583  1.0000
  C   C23       1.0  0.8243880852770434  0.9509670700421757  0.7619009304579201  1.0000
  C   C24       1.0  0.6756119141022936  0.45096707020038324  0.7380990698106428  1.0000
  C   C25       1.0  0.6551373322922623  0.10676914659887995  0.16199731167127263  1.0000
  C   C26       1.0  0.8448626670042341  0.6067691464406725  0.3380026885300449  1.0000
  C   C27       1.0  0.34486266804926485  0.8932308534702206  0.8380026885256284  1.0000
  C   C28       1.0  0.1551373322043393  0.3932308532429125  0.6619973116400674  1.0000
  C   C29       1.0  0.7329164005551525  0.15619088714539106  0.39380208539965333  1.0000
  C   C30       1.0  0.7670835993007808  0.6561908869871835  0.10619791361960121  1.0000
  C   C31       1.0  0.2670835992128579  0.8438091129237094  0.6061979135883959  1.0000
  C   C32       1.0  0.2329164004672295  0.343809113081917  0.8938020853684482  1.0000
  C   C33       1.0  0.8064540487189079  0.15780160297926385  0.5573269757368062  1.0000
  C   C34       1.0  0.6935459517933827  0.6578016032065718  0.9426730245585453  1.0000
  C   C35       1.0  0.1935459516226192  0.8421983970898367  0.44267302446009477  1.0000
  C   C36       1.0  0.3064540485481444  0.34219839686252856  0.05732697563835577  1.0000
  C   C37       1.0  0.686571315828298  0.2539018161689312  0.37319455017158093  1.0000
  C   C38       1.0  0.8134286834681985  0.7539018163962391  0.12680545002973656  1.0000
  C   C39       1.0  0.3134286833802754  0.7460981839001692  0.6268054499985314  1.0000
  C   C40       1.0  0.18657131687332887  0.2460981836728613  0.8731945501671645  1.0000
  C   C41       1.0  0.6729925431482868  0.20298206139521097  0.29384743835095545  1.0000
  C   C42       1.0  0.8270074561482097  0.7029820612370035  0.20615256185036204  1.0000
  C   C43       1.0  0.3270074560602866  0.7970179386738895  0.7061525618191568  1.0000
  C   C44       1.0  0.1729925430603638  0.297017938832097  0.7938474383197504  1.0000
  C   C45       1.0  0.5929442034631741  0.15347230919789978  0.061935608046394176  1.0000
  C   C46       1.0  0.9070557958333222  0.6534723090396922  0.4380643921549233  1.0000
  C   C47       1.0  0.40705579574539924  0.8465276908712007  0.9380643921237181  1.0000
  C   C48       1.0  0.09294420337525106  0.3465276910294082  0.5619356080151888  1.0000
  C   C49       1.0  0.5148061947870815  0.1519063424633466  0.8981709347175219  1.0000
  C   C50       1.0  0.9851938057252095  0.651906342305139  0.6018290655778298  1.0000
  C   C51       1.0  0.48519380555444586  0.8480936576057538  0.1018290654793792  1.0000
  C   C52       1.0  0.01480619461631773  0.3480936577639614  0.3981709346190713  1.0000
  C   C53       1.0  0.6423113491972415  0.05567225900989746  0.08322760485029522  1.0000
  C   C54       1.0  0.8576886512322087  0.5556722588516899  0.416772395377811  1.0000
  C   C55       1.0  0.3576886511442857  0.944327741059203  0.9167723953466058  1.0000
  C   C56       1.0  0.1423113491093185  0.44432774121741053  0.58322760481909  1.0000
  N   N1        1.0  0.6089748059946877  0.20125077134227223  0.13724963967768392  1.0000
  N   N2        1.0  0.8910251933018087  0.7012507711840648  0.3627503605236336  1.0000
  N   N3        1.0  0.39102519321388574  0.7987492287268283  0.8627503604924284  1.0000
  N   N4        1.0  0.10897480590676466  0.2987492288850358  0.6372496396464786  1.0000
  N   N5        1.0  0.7200577925342279  0.10858795330069314  0.31855090071683567  1.0000
  N   N6        1.0  0.7799422078952223  0.6085879531424856  0.18144909951127053  1.0000
  N   N7        1.0  0.2799422078072992  0.8914120467684072  0.6814490994800653  1.0000
  N   N8        1.0  0.220057792446305  0.39141204692661485  0.8185509006856305  1.0000
  F   F1        1.0  0.1917009910920011  0.004460320482681819  0.17197934700483425  1.0000
  F   F2        1.0  0.3082990090787625  0.5044603207099898  0.3280206530936163  1.0000
  F   F3        1.0  0.8082990086760093  0.9955396792009031  0.8280206519832152  1.0000
  F   F4        1.0  0.6917009912627646  0.49553967935911064  0.6719793471032847  1.0000
  F   F5        1.0  0.1556700213691235  0.1865313312409248  0.16047127014326687  1.0000
  F   F6        1.0  0.34432997880164007  0.6865313310827172  0.33952872995518363  1.0000
  F   F7        1.0  0.8443299789724037  0.8134686688281757  0.8395287300536342  1.0000
  F   F8        1.0  0.6556700215398871  0.31346866898638315  0.6604712702417174  1.0000
  F   F9        1.0  0.15745390282061078  0.09385005587286889  0.5958089826953162  1.0000
  F   F10       1.0  0.34254609743299336  0.5938500557146614  0.9041910174703794  1.0000
  F   F11       1.0  0.8425460975209164  0.9061499441962315  0.40419101750158465  1.0000
  F   F12       1.0  0.6574539029085338  0.4061499439689236  0.09580898272652152  1.0000
  Br  Br1       1.0  0.12928182962132095  0.2043729370046876  0.47010336295150046  1.0000
  Br  Br2       1.0  0.3707181705494426  0.7043729372319956  0.029896637146950032  1.0000
  Br  Br3       1.0  0.8707181707202062  0.7956270626788974  0.5298966372454005  1.0000
  Br  Br4       1.0  0.6292818297920846  0.2956270628371049  0.970103363049951  1.0000
  Br  Br5       1.0  0.20717743705637465  0.9843519082125257  0.49914200321304214  1.0000
  Br  Br6       1.0  0.292822563114389  0.4843519083707333  0.0008579968854084175  1.0000
  Br  Br7       1.0  0.7928225632851525  0.01564809147105918  0.5008579969838589  1.0000
  Br  Br8       1.0  0.7071774366536214  0.5156480916983672  0.9991420021026409  1.0000
  Br  Br9       1.0  0.18022026875042324  0.09537323346899823  0.9637550366337708  1.0000
  Br  Br10      1.0  0.3197797303702271  0.5953732336963062  0.5362449635051363  1.0000
  Br  Br11      1.0  0.8197797304581501  0.9046267666001023  0.03624496353634149  1.0000
  Br  Br12      1.0  0.6802202688383463  0.40462676637279427  0.46375503666497603  1.0000
