data_image0
_chemical_formula_structural       H62C100O4Cl2
_chemical_formula_sum              "H62 C100 O4 Cl2"
_cell_length_a       9.80268307395113
_cell_length_b       10.256135631752034
_cell_length_c       16.820797455335764
_cell_angle_alpha    89.01590830552213
_cell_angle_beta     87.14014357459735
_cell_angle_gamma    80.66921601070025

_space_group_name_H-M_alt    "P 1"
_space_group_IT_number       1

loop_
  _space_group_symop_operation_xyz
  'x, y, z'

loop_
  _atom_site_type_symbol
  _atom_site_label
  _atom_site_symmetry_multiplicity
  _atom_site_fract_x
  _atom_site_fract_y
  _atom_site_fract_z
  _atom_site_occupancy
  H   H1        1.0  0.46710804788735993  0.612978345502885  0.9137303352558696  1.0000
  H   H2        1.0  0.5328919522469632  0.3870216546574211  0.08626966499488557  1.0000
  H   H3        1.0  0.8061795310027762  0.6463330967764453  0.743797180524088  1.0000
  H   H4        1.0  0.1938204691315469  0.3536669033838607  0.256202819726667  1.0000
  H   H5        1.0  0.60231852270233  0.5414058195188433  0.7872161963076606  1.0000
  H   H6        1.0  0.39768147748253935  0.45859418065093693  0.21278380334782612  1.0000
  H   H7        1.0  0.8714440618945462  0.8257043471994756  0.824203198183755  1.0000
  H   H8        1.0  0.12855593823977682  0.1742956529608304  0.17579680206700007  1.0000
  H   H9        1.0  0.7328296274875526  0.9002061154162627  0.9485893112135149  1.0000
  H   H10       1.0  0.2671703726467705  0.09979388474404323  0.0514106890372402  1.0000
  H   H11       1.0  0.21084282899428763  0.6598440014003477  0.5082885613553655  1.0000
  H   H12       1.0  0.7891571711400356  0.34015599875995833  0.49171143889538965  1.0000
  H   H13       1.0  0.29821380278004395  0.8592045423114328  0.5190828968928175  1.0000
  H   H14       1.0  0.7017861963847204  0.14079545785856276  0.48091710276197464  1.0000
  H   H15       1.0  0.799547772512857  0.8179033533306644  0.5948810102345892  1.0000
  H   H16       1.0  0.20045222762146606  0.18209664682964155  0.40511899001616586  1.0000
  H   H17       1.0  0.0891443704406849  0.7844900540732133  0.7009215960936519  1.0000
  H   H18       1.0  0.9108556296936382  0.21550994608709284  0.29907840415710335  1.0000
  H   H19       1.0  0.3363938507103463  0.6675780628124777  0.7074212728820224  1.0000
  H   H20       1.0  0.6636061494745232  0.3324219373573025  0.29257872677346436  1.0000
  H   H21       1.0  0.9655060468272466  0.4729028540411339  0.568203923460196  1.0000
  H   H22       1.0  0.0344939523375177  0.5270971461288619  0.43179607619459626  1.0000
  H   H23       1.0  0.6466021109255399  0.6486380961957708  0.6369877805982757  1.0000
  H   H24       1.0  0.35339788823922436  0.35136190397422495  0.3630122190565164  1.0000
  H   H25       1.0  0.010390372078157883  0.31975474665575315  0.6826936952617372  1.0000
  H   H26       1.0  0.9896096280561653  0.6802452535045529  0.317306304989018  1.0000
  H   H27       1.0  0.736452459234991  0.5415811214613881  0.5093379577696224  1.0000
  H   H28       1.0  0.2635475399297732  0.45841887870860765  0.49066204188516965  1.0000
  H   H29       1.0  0.7633209282018539  0.9498118782121286  0.47049863711172046  1.0000
  H   H30       1.0  0.23667907096291035  0.05018812195786724  0.5295013625430717  1.0000
  H   H31       1.0  0.11427505922667788  0.027639434534640607  0.9739567829783761  1.0000
  H   H32       1.0  0.8857249409076453  0.9723605656256654  0.026043217272378877  1.0000
  H   H33       1.0  0.8415188449979476  0.01976012842425968  0.3428569230864652  1.0000
  H   H34       1.0  0.15848115518692196  0.9802398717455204  0.6571430765690215  1.0000
  H   H35       1.0  0.26688838577863905  0.13412139218022898  0.8785924802070985  1.0000
  H   H36       1.0  0.7331116144062304  0.8658786079895513  0.12140751944838835  1.0000
  H   H37       1.0  0.3978607229139484  0.13167523103584314  0.7508930822806846  1.0000
  H   H38       1.0  0.6021392772203747  0.868324769124463  0.24910691797007045  1.0000
  H   H39       1.0  0.71977394585891  0.5091650918636289  0.3694842609553512  1.0000
  H   H40       1.0  0.2802260533058543  0.490834908306367  0.630515738699441  1.0000
  H   H41       1.0  0.20273743276761472  0.34330934881924907  0.9357413621419055  1.0000
  H   H42       1.0  0.7972625673667084  0.656690651341057  0.06425863810884962  1.0000
  H   H43       1.0  0.09991813314592166  0.2700833774606607  0.8130418604667997  1.0000
  H   H44       1.0  0.9000818659682961  0.7299166226998609  0.18695813978326078  1.0000
  H   H45       1.0  0.49137303510087554  0.017615314264584084  0.6264018770145302  1.0000
  H   H46       1.0  0.5086269650334474  0.9823846858957219  0.373598123236225  1.0000
  H   H47       1.0  0.6067892015478397  0.5780260222428221  0.24276134593432996  1.0000
  H   H48       1.0  0.39321079863702985  0.42197397792695807  0.7572386537211568  1.0000
  H   H49       1.0  0.041977928667804615  0.7648728350322587  0.08474999246674778  1.0000
  H   H50       1.0  0.9580220715170651  0.23512716513752138  0.915250007188739  1.0000
  H   H51       1.0  0.204538847439877  0.8013670150083443  0.04452632301226755  1.0000
  H   H52       1.0  0.7954611527449926  0.19863298516143577  0.9554736766432192  1.0000
  H   H53       1.0  0.01356648067930733  0.9878491610307361  0.22821843558155266  1.0000
  H   H54       1.0  0.986433519622438  0.01215083814147345  0.7717815646689825  1.0000
  H   H55       1.0  0.22040757328681765  0.8787582336516931  0.16749702692142596  1.0000
  H   H56       1.0  0.7795924258274003  0.12124176650882858  0.8325029733286345  1.0000
  H   H57       1.0  0.23669930511794618  0.5672471274133607  0.08129225962724827  1.0000
  H   H58       1.0  0.7633006950669233  0.43275287275641955  0.9187077400282385  1.0000
  H   H59       1.0  0.08944049645681745  0.5415064232614634  0.02910050935041118  1.0000
  H   H60       1.0  0.9105595036775057  0.4584935768988427  0.9708994909003439  1.0000
  H   H61       1.0  0.4362227303132083  0.712397592771733  0.17144513590141855  1.0000
  H   H62       1.0  0.5637772698716612  0.2876024073980473  0.8285548637540682  1.0000
  C   C1        1.0  0.555254698754584  0.6587389068150459  0.8929196411481862  1.0000
  C   C2        1.0  0.44474530143028557  0.3412610933547343  0.10708035850730056  1.0000
  C   C3        1.0  0.7453167096381024  0.6790876824206099  0.7978415468937267  1.0000
  C   C4        1.0  0.25468328952666186  0.3209123177493859  0.20215845276106545  1.0000
  C   C5        1.0  0.6318179315702226  0.6195377526495979  0.822670575217394  1.0000
  C   C6        1.0  0.36818206861464686  0.3804622475201822  0.17732942443809283  1.0000
  C   C7        1.0  0.5936498653841444  0.7598356242713235  0.936949949674976  1.0000
  C   C8        1.0  0.40635013389749564  0.24016437490110182  0.0630500505748646  1.0000
  C   C9        1.0  0.782165860001701  0.7797437591760312  0.8429555237704021  1.0000
  C   C10       1.0  0.21783414013262212  0.2202562409842748  0.15704447648035302  1.0000
  C   C11       1.0  0.7059319710897424  0.8214667024143838  0.9128402882341545  1.0000
  C   C12       1.0  0.294068029095127  0.17853329775539656  0.08715971142133212  1.0000
  C   C13       1.0  0.027690465015581606  0.6389589617219451  0.6279141837295784  1.0000
  C   C14       1.0  0.9723095341491828  0.36104103844805063  0.3720858159252137  1.0000
  C   C15       1.0  0.11517172311009702  0.7275829347977015  0.5002134695597342  1.0000
  C   C16       1.0  0.8848282770747724  0.2724170653720786  0.4997865300957526  1.0000
  C   C17       1.0  0.3927469395725114  0.7874166360351817  0.5165186830255556  1.0000
  C   C18       1.0  0.6072530605618117  0.21258336412512438  0.48348131722519944  1.0000
  C   C19       1.0  0.28277286455763123  0.8348915871850832  0.7861965820936423  1.0000
  C   C20       1.0  0.7172271355766917  0.16510841297522283  0.21380341815711282  1.0000
  C   C21       1.0  0.10873218559695755  0.5953209272565367  0.7625904978984394  1.0000
  C   C22       1.0  0.8912678145879119  0.40467907291324334  0.23740950175704736  1.0000
  C   C23       1.0  0.41687764969508545  0.8345100814030744  0.659435181172672  1.0000
  C   C24       1.0  0.583122350489784  0.1654899187667059  0.3405648184828149  1.0000
  C   C25       1.0  0.08344134438544609  0.4620568729413829  0.7564411177349698  1.0000
  C   C26       1.0  0.9165586557994234  0.5379431272283973  0.24355888192051695  1.0000
  C   C27       1.0  0.008508992312731318  0.7293589279954609  0.5579382175048141  1.0000
  C   C28       1.0  0.9914910078721383  0.2706410721743192  0.4420617821506726  1.0000
  C   C29       1.0  0.5633943632232876  0.63233522218941  0.44238815219015665  1.0000
  C   C30       1.0  0.43660563691103554  0.36766477797089603  0.5576118480605985  1.0000
  C   C31       1.0  0.9705878231884708  0.8886472776468199  0.42093155664030907  1.0000
  C   C32       1.0  0.029412176996398667  0.11135272252296025  0.5790684430151777  1.0000
  C   C33       1.0  0.19666723734053654  0.7730310731192929  0.8420021472242443  1.0000
  C   C34       1.0  0.8033327627937864  0.22696892704101315  0.15799785302651087  1.0000
  C   C35       1.0  0.16948690801048039  0.6358740039486531  0.8321977722531033  1.0000
  C   C36       1.0  0.8305130921238425  0.364125996211653  0.1678022279976519  1.0000
  C   C37       1.0  0.8822559434331616  0.8151274079777538  0.5489841812211845  1.0000
  C   C38       1.0  0.11774405686858379  0.18487259119445584  0.4510158190293507  1.0000
  C   C39       1.0  0.1033589460845162  0.809769754804631  0.4314865974518533  1.0000
  C   C40       1.0  0.896641054049807  0.19023024535567498  0.5685134027989018  1.0000
  C   C41       1.0  0.07421143753313554  0.6821902055790783  0.6975335891426628  1.0000
  C   C42       1.0  0.9257885615810822  0.3178097945814435  0.3024664111073976  1.0000
  C   C43       1.0  0.346822914452174  0.7698133418605003  0.7171621939448712  1.0000
  C   C44       1.0  0.6531770846620438  0.23018665830002136  0.28283780630518934  1.0000
  C   C45       1.0  0.21179701913807744  0.8060238746820289  0.3685576192051101  1.0000
  C   C46       1.0  0.7882029800266869  0.19397612548796694  0.6314423804496819  1.0000
  C   C47       1.0  0.30492967172303853  0.9677213787617684  0.7988120726853275  1.0000
  C   C48       1.0  0.6950703284112847  0.032278621398537585  0.20118792756542767  1.0000
  C   C49       1.0  0.13944785684729605  0.8455630460197445  0.9082240392681576  1.0000
  C   C50       1.0  0.8605521432870271  0.15443695414056136  0.09177596098259737  1.0000
  C   C51       1.0  0.3539787582451097  0.7394998317639709  0.3730598178875933  1.0000
  C   C52       1.0  0.6460212418892133  0.2605001683963351  0.6269401823631618  1.0000
  C   C53       1.0  0.43262418982206774  0.718500919530606  0.4447044057092356  1.0000
  C   C54       1.0  0.5673758093426964  0.2814990806393898  0.5552955939455566  1.0000
  C   C55       1.0  0.0032913404592448663  0.5068163048927116  0.6227638916373464  1.0000
  C   C56       1.0  0.9967086597256245  0.4931836952770687  0.37723610801814045  1.0000
  C   C57       1.0  0.19935790141451387  0.5424872838138896  0.8926908877528339  1.0000
  C   C58       1.0  0.8006420977502504  0.4575127163561062  0.10730911190195822  1.0000
  C   C59       1.0  0.46787006347516147  0.7640602879276058  0.584635721438625  1.0000
  C   C60       1.0  0.532129936709708  0.2359397122421744  0.4153642782168617  1.0000
  C   C61       1.0  0.589798764849587  0.6693895797369173  0.5829549176677222  1.0000
  C   C62       1.0  0.4102012354521585  0.33061041943529224  0.4170450825828129  1.0000
  C   C63       1.0  0.4272252230383747  0.6970085086069576  0.3001301786325063  1.0000
  C   C64       1.0  0.5727747770959484  0.30299149155334837  0.6998698216182488  1.0000
  C   C65       1.0  0.028583030679826416  0.42142557000242076  0.6862981160638907  1.0000
  C   C66       1.0  0.9714169694544967  0.5785744301578853  0.31370188418686445  1.0000
  C   C67       1.0  0.6378190018292539  0.6082160733288369  0.5124562552219303  1.0000
  C   C68       1.0  0.3621809983050692  0.3917839268314692  0.48754374502882475  1.0000
  C   C69       1.0  0.8635687454494501  0.8902943974121292  0.4806721011331248  1.0000
  C   C70       1.0  0.13643125468487302  0.1097056027481767  0.5193278991176302  1.0000
  C   C71       1.0  0.16349317010774525  0.9756092494131139  0.9213613418137455  1.0000
  C   C72       1.0  0.8365068300265778  0.02439075074719209  0.07863865843700953  1.0000
  C   C73       1.0  0.9427193152676733  0.9591663168264789  0.3484437051764248  1.0000
  C   C74       1.0  0.05728068486664987  0.04083368333382713  0.6515562950743302  1.0000
  C   C75       1.0  0.2456869592346726  0.034927096811790175  0.8681809680750615  1.0000
  C   C76       1.0  0.7543130409501969  0.96507290335799  0.1318190315804253  1.0000
  C   C77       1.0  0.17018026985665397  0.8625317100181981  0.29357617469895025  1.0000
  C   C78       1.0  0.8298197302776693  0.13746829014210796  0.7064238255518048  1.0000
  C   C79       1.0  0.38269851337360494  0.030455136620609852  0.7407705182464724  1.0000
  C   C80       1.0  0.617301486760718  0.9695448635396962  0.25922948200428275  1.0000
  C   C81       1.0  0.6211728429202819  0.5756843952304052  0.3691945350596081  1.0000
  C   C82       1.0  0.37882715743201  0.42431560395127865  0.6308054645956589  1.0000
  C   C83       1.0  0.17394519315665694  0.4111710919770777  0.8865175985171988  1.0000
  C   C84       1.0  0.8260548069776662  0.5888289081832282  0.11348240173355634  1.0000
  C   C85       1.0  0.11719864752997117  0.3717351888914353  0.8196602883598905  1.0000
  C   C86       1.0  0.8828013526043519  0.6282648112688707  0.18033971189086467  1.0000
  C   C87       1.0  0.4350047535185559  0.9670393228202572  0.6715964180091496  1.0000
  C   C88       1.0  0.564995245595662  0.03296067734026452  0.3284035822409109  1.0000
  C   C89       1.0  0.5578551381234145  0.611976979081769  0.3000559005258123  1.0000
  C   C90       1.0  0.44214486201090863  0.3880230210785371  0.6999440997249428  1.0000
  C   C91       1.0  0.11962526309761172  0.7459418068061042  0.0352759908311561  1.0000
  C   C92       1.0  0.8803747360671526  0.25405819336389157  0.964724008823636  1.0000
  C   C93       1.0  0.03798653722456941  0.9426220644628639  0.2860869675918007  1.0000
  C   C94       1.0  0.9620134619401948  0.05737793570713201  0.7139130320629915  1.0000
  C   C95       1.0  0.2558348060977533  0.8331618079427222  0.2233826887705317  1.0000
  C   C96       1.0  0.7441651942039924  0.1668381912294873  0.7766173114800035  1.0000
  C   C97       1.0  0.17432986095149908  0.5996636817783304  0.03002481467981653  1.0000
  C   C98       1.0  0.825670139182824  0.4003363183819756  0.9699751855709388  1.0000
  C   C99       1.0  0.3750607410100935  0.7439783472674875  0.22572721056847095  1.0000
  C   C100      1.0  0.6249392591242295  0.2560216528928186  0.7742727896822842  1.0000
  O   O1        1.0  0.052561020412411445  0.793169125048113  0.963212955518791  1.0000
  O   O2        1.0  0.9474389797724581  0.20683087512166717  0.03678704413669582  1.0000
  O   O3        1.0  0.26408792823215643  0.573012760939738  0.9594538403587582  1.0000
  O   O4        1.0  0.7359120709326077  0.42698723923025794  0.0405461592960338  1.0000
  Cl  Cl1       1.0  0.5002310906882579  0.8102958026994495  0.02497130893982598  1.0000
  Cl  Cl2       1.0  0.4997689084765064  0.1897041974705464  0.9750286907149662  1.0000
