data_image0
_chemical_formula_structural       H42C38O12Br2
_chemical_formula_sum              "H42 C38 O12 Br2"
_cell_length_a       7.697736674664501
_cell_length_b       7.599318557040113
_cell_length_c       15.98712488020408
_cell_angle_alpha    90.0
_cell_angle_beta     90.56318959729309
_cell_angle_gamma    90.0

_space_group_name_H-M_alt    "P 1"
_space_group_IT_number       1

loop_
  _space_group_symop_operation_xyz
  'x, y, z'

loop_
  _atom_site_type_symbol
  _atom_site_label
  _atom_site_symmetry_multiplicity
  _atom_site_fract_x
  _atom_site_fract_y
  _atom_site_fract_z
  _atom_site_occupancy
  H   H1        1.0  0.10236533666597662  0.45549710464410637  0.6772932472772266  1.0000
  H   H2        1.0  0.8976346632463372  0.9554971048388532  0.32270675321925535  1.0000
  H   H3        1.0  0.7619210043368786  0.10284671765417011  0.6447696928627366  1.0000
  H   H4        1.0  0.23807899552353878  0.602846717848917  0.3552303070084957  1.0000
  H   H5        1.0  0.8495580372650994  0.26437009120229665  0.5776882396879833  1.0000
  H   H6        1.0  0.15044196264721466  0.764370090081136  0.42231176080849875  1.0000
  H   H7        1.0  0.6689086761924172  0.3214211421282187  0.6399252502527262  1.0000
  H   H8        1.0  0.33109132371989675  0.8214211423229656  0.36007475024375596  1.0000
  H   H9        1.0  0.6929859692313668  0.4915873761521905  0.04509801918712554  1.0000
  H   H10       1.0  0.30701403068094707  0.9915873763469373  0.9549019813093564  1.0000
  H   H11       1.0  0.9957374395196819  0.5969253434964347  0.06996536532634194  1.0000
  H   H12       1.0  0.004262560340735579  0.09692534330168782  0.9300346345448903  1.0000
  H   H13       1.0  0.21463018066694045  0.5643456091239842  0.9566315266834577  1.0000
  H   H14       1.0  0.7853698191934771  0.06434560892923742  0.04336847318777458  1.0000
  H   H15       1.0  0.13357092688585065  0.43318736085228476  0.8218280733735057  1.0000
  H   H16       1.0  0.8664290729745668  0.9331873610470316  0.17817192649772662  1.0000
  H   H17       1.0  0.5844084279943911  0.0725376131902415  0.7220452820355283  1.0000
  H   H18       1.0  0.41559157186602647  0.5725376133849883  0.2779547178357042  1.0000
  H   H19       1.0  0.9869082185045004  0.8102926405546519  0.641880479220426  1.0000
  H   H20       1.0  0.013091781355917072  0.31029264035990495  0.35811952065080643  1.0000
  H   H21       1.0  0.9349669465447816  0.9397378168051843  0.5529576693627726  1.0000
  H   H22       1.0  0.06503305331563579  0.4397378166104375  0.4470423305084597  1.0000
  H   H23       1.0  0.03547148190275437  0.7321374657791743  0.5401656010389331  1.0000
  H   H24       1.0  0.9645285179576631  0.2321374655844274  0.45983439883229926  1.0000
  H   H25       1.0  0.5637822350758663  0.6474339920178752  0.7943521981831604  1.0000
  H   H26       1.0  0.4362177647845512  0.14743399182312839  0.205647801688072  1.0000
  H   H27       1.0  0.8294358731848189  0.7711658125676157  0.86473904041526  1.0000
  H   H28       1.0  0.17056412667559862  0.27116581237286885  0.13526095945597244  1.0000
  H   H29       1.0  0.6369471984492017  0.8366634708463161  0.9168868457761769  1.0000
  H   H30       1.0  0.3630528014112158  0.33666347065156926  0.08311315409505543  1.0000
  H   H31       1.0  0.7478036253557234  0.9887030953636518  0.8508923876157508  1.0000
  H   H32       1.0  0.25219637450469407  0.488703095168905  0.14910761225548158  1.0000
  H   H33       1.0  0.796102349652038  0.6342911214762168  0.44373870154645745  1.0000
  H   H34       1.0  0.2038976502083794  0.13429112128147006  0.5562612983247749  1.0000
  H   H35       1.0  0.513737181123913  0.48006242962670725  0.43455354898943693  1.0000
  H   H36       1.0  0.48626282003461346  0.9800624285055466  0.5654464508629523  1.0000
  H   H37       1.0  0.3176170990438613  0.4752313688250794  0.5576183552233737  1.0000
  H   H38       1.0  0.6823829008165561  0.9752313690198262  0.44238164464785873  1.0000
  H   H39       1.0  0.4045725598499796  0.6223792376249815  0.6884679019927218  1.0000
  H   H40       1.0  0.5954274400104379  0.12237923743023461  0.31153209787851055  1.0000
  H   H41       1.0  0.14666161408216302  0.9849129647376212  0.7786186792057909  1.0000
  H   H42       1.0  0.8533383857782544  0.4849129645428744  0.22138132066544147  1.0000
  C   C1        1.0  0.06666353831840441  0.18403279971786263  0.7138578628792055  1.0000
  C   C2        1.0  0.9333364615420131  0.6840327999126095  0.28614213699202673  1.0000
  C   C3        1.0  0.911353642239084  0.3087115235913667  0.7077070491858165  1.0000
  C   C4        1.0  0.08864635767322994  0.8087115224702062  0.2922929513106656  1.0000
  C   C5        1.0  0.7893427335843022  0.24412047160220232  0.6385788102475117  1.0000
  C   C6        1.0  0.21065726627611528  0.7441204717969491  0.36142118962372066  1.0000
  C   C7        1.0  0.8645772601909106  0.3889371813821172  0.8545271135661467  1.0000
  C   C8        1.0  0.13542273966950683  0.8889371815768641  0.14547288630508567  1.0000
  C   C9        1.0  0.7442644949844365  0.4062482164456662  0.9198006414263893  1.0000
  C   C10       1.0  0.2557355048759811  0.906248216640413  0.08019935844484309  1.0000
  C   C11       1.0  0.7905336187682953  0.4791498622763656  0.9967154897138731  1.0000
  C   C12       1.0  0.20946638244212756  0.9791498624711124  0.003284510763765838  1.0000
  C   C13       1.0  0.9599836677919078  0.5375851425803619  0.01034461182720014  1.0000
  C   C14       1.0  0.04001633341851498  0.03758514238561513  0.9896553886504389  1.0000
  C   C15       1.0  0.08161752109871036  0.5194584580670004  0.9469254734637833  1.0000
  C   C16       1.0  0.9183824787617071  0.01945845787225359  0.05307452640744906  1.0000
  C   C17       1.0  0.03564887845611874  0.4452517333761956  0.8700465536421018  1.0000
  C   C18       1.0  0.9643511214042988  0.9452517335709424  0.12995344622913046  1.0000
  C   C19       1.0  0.9397006116350856  0.8043435176615052  0.5772348763876055  1.0000
  C   C20       1.0  0.060299388225331894  0.30434351746675853  0.4227651234836269  1.0000
  C   C21       1.0  0.44163248775062564  0.8968473026684864  0.7729433979375311  1.0000
  C   C22       1.0  0.5583675121097919  0.39684730247373956  0.2270566019337014  1.0000
  C   C23       1.0  0.6045056958481615  0.7846828245508598  0.7846949799893844  1.0000
  C   C24       1.0  0.39549430401225594  0.2846828243561129  0.21530501988184791  1.0000
  C   C25       1.0  0.7110181732743104  0.8504320738091524  0.8590119223328899  1.0000
  C   C26       1.0  0.28898182658610705  0.35043207361440565  0.14098807753834242  1.0000
  C   C27       1.0  0.6521390972037903  0.7131214488935386  0.6402355663211257  1.0000
  C   C28       1.0  0.3478609026566273  0.21312144869879165  0.3597644335501068  1.0000
  C   C29       1.0  0.7655935812694649  0.7159073736894384  0.5716502608988762  1.0000
  C   C30       1.0  0.2344064185909527  0.2159073734946915  0.42834973897235623  1.0000
  C   C31       1.0  0.7111657070218719  0.63196118625017  0.4981263339185587  1.0000
  C   C32       1.0  0.2888342928385457  0.13196118605542312  0.5018736659526737  1.0000
  C   C33       1.0  0.5508133838335143  0.5470756711664002  0.492135576251684  1.0000
  C   C34       1.0  0.4491866160269032  0.04707567097165337  0.5078644236195484  1.0000
  C   C35       1.0  0.44129230138387393  0.5446238118503121  0.5608218310676132  1.0000
  C   C36       1.0  0.55870769852844  0.04462381165556526  0.43917816942886884  1.0000
  C   C37       1.0  0.49131410482460575  0.6275763825668015  0.6351997231897264  1.0000
  C   C38       1.0  0.5086858950358117  0.12757638237205463  0.36480027668150594  1.0000
  O   O1        1.0  0.9790545866807188  0.4769452619725029  0.6884799032048269  1.0000
  O   O2        1.0  0.020945414477807643  0.9769452608513424  0.3115200966475624  1.0000
  O   O3        1.0  0.04354258812777869  0.07066610196285332  0.7730538475025983  1.0000
  O   O4        1.0  0.9564574117326388  0.5706661021576002  0.22694615236863402  1.0000
  O   O5        1.0  0.8021167768263424  0.3205553868699521  0.780985101504458  1.0000
  O   O6        1.0  0.19788322303407502  0.8205553857487915  0.2190148983667744  1.0000
  O   O7        1.0  0.2963152756591039  0.8508746148047375  0.7967426112665668  1.0000
  O   O8        1.0  0.7036847242013134  0.3508746146099906  0.2032573886046656  1.0000
  O   O9        1.0  0.46190563276633606  0.05273363354780663  0.7365046232063804  1.0000
  O   O10       1.0  0.5380943670940814  0.5527336337425535  0.26349537666485184  1.0000
  O   O11       1.0  0.7100740872264768  0.7995752914412173  0.7116824610041576  1.0000
  O   O12       1.0  0.28992591393204953  0.29957529124647053  0.28831753884823175  1.0000
  Br  Br1       1.0  0.5101255348982384  0.3314129590826029  0.9029796827061713  1.0000
  Br  Br2       1.0  0.48987446501407544  0.8314129592773497  0.0970203177903106  1.0000
