data_image0
_chemical_formula_structural       H60C54N8O14
_chemical_formula_sum              "H60 C54 N8 O14"
_cell_length_a       10.204246215626483
_cell_length_b       10.580994658571225
_cell_length_c       13.615179712169066
_cell_angle_alpha    88.85758105374467
_cell_angle_beta     67.21777572389128
_cell_angle_gamma    65.64146733889046

_space_group_name_H-M_alt    "P 1"
_space_group_IT_number       1

loop_
  _space_group_symop_operation_xyz
  'x, y, z'

loop_
  _atom_site_type_symbol
  _atom_site_label
  _atom_site_symmetry_multiplicity
  _atom_site_fract_x
  _atom_site_fract_y
  _atom_site_fract_z
  _atom_site_occupancy
  H   H1        1.0  0.1006868416566809  0.7142527742138558  0.2438281699091872  1.0000
  H   H2        1.0  0.8993131581183811  0.2857472262367403  0.7561718300786281  1.0000
  H   H3        1.0  0.3065571946454182  0.6297415510547145  0.16455996576094548  1.0000
  H   H4        1.0  0.6934428056381884  0.3702584483513246  0.8354400348351599  1.0000
  H   H5        1.0  0.9649838441760823  0.5820144048055801  0.3645393574603059  1.0000
  H   H6        1.0  0.03501615610752426  0.41798559460045914  0.6354606431357995  1.0000
  H   H7        1.0  0.07334654341551891  0.40511275743825537  0.37471095557546885  1.0000
  H   H8        1.0  0.9266534568726624  0.5948872419602738  0.6252890442849699  1.0000
  H   H9        1.0  0.9321714489236091  0.41399775533389876  0.2597526197409523  1.0000
  H   H10       1.0  0.0678285508514528  0.5860022451166973  0.7402473802468632  1.0000
  H   H11       1.0  0.16020250259221716  0.25356818033689404  0.09615892962280802  1.0000
  H   H12       1.0  0.8397974971828447  0.7464318201137021  0.9038410703650074  1.0000
  H   H13       1.0  0.19538802973310368  0.2096627784891305  0.2130386913770665  1.0000
  H   H14       1.0  0.8046119700419583  0.7903372219614656  0.786961308610749  1.0000
  H   H15       1.0  0.4322897463521531  0.21451883752536038  0.06570563002367837  1.0000
  H   H16       1.0  0.5677102539360285  0.7854811618731687  0.9342943698367603  1.0000
  H   H17       1.0  0.4221742854457754  0.4377809115351082  0.002885525026880432  1.0000
  H   H18       1.0  0.5778257143292865  0.562219088915488  0.997114474960935  1.0000
  H   H19       1.0  0.29422043702363876  0.38941485819408683  0.9716815471608308  1.0000
  H   H20       1.0  0.7057795627514233  0.6105851422565092  0.028318452826984624  1.0000
  H   H21       1.0  0.9968930625874362  0.5074644431195132  0.08700803059939385  1.0000
  H   H22       1.0  0.0031069377007456687  0.49253555627901585  0.9129919692610446  1.0000
  H   H23       1.0  0.9167529294304648  0.6405591540157437  0.1991620588938039  1.0000
  H   H24       1.0  0.08324707034002188  0.35944084644236246  0.8008379418296784  1.0000
  H   H25       1.0  0.3780435491307509  0.28116595326361243  0.2565286188290823  1.0000
  H   H26       1.0  0.6219564506443113  0.7188340471869836  0.7434713811587331  1.0000
  H   H27       1.0  0.4690670392418688  0.37796817484514117  0.1708938490533525  1.0000
  H   H28       1.0  0.530932960533193  0.622031825605455  0.829106150934463  1.0000
  H   H29       1.0  0.07749954066334562  0.8319662472836735  0.8725824538000324  1.0000
  H   H30       1.0  0.9225004591117164  0.1680337531669225  0.12741754618778312  1.0000
  H   H31       1.0  0.12612037017242306  0.9966487487965014  0.7460072247547723  1.0000
  H   H32       1.0  0.8738796296026388  0.0033512516540946673  0.2539927752330432  1.0000
  H   H33       1.0  0.2904992275667049  0.11553986522647203  0.7563798884398918  1.0000
  H   H34       1.0  0.7095007727214767  0.8844601341720572  0.24362011142054685  1.0000
  H   H35       1.0  0.3848066898173261  0.07475082248756179  0.905854021725774  1.0000
  H   H36       1.0  0.6151933104708555  0.9252491769109676  0.09414597813466463  1.0000
  H   H37       1.0  0.265499821702012  0.7097740653403237  0.5108219645416694  1.0000
  H   H38       1.0  0.7345001780730499  0.29022593511027245  0.4891780354461461  1.0000
  H   H39       1.0  0.33157133305826725  0.7310854798662748  0.6669023913293874  1.0000
  H   H40       1.0  0.6684286667122198  0.2689145205918313  0.33309760939409483  1.0000
  H   H41       1.0  0.3948876194986448  0.5254868371979294  0.7661460757311211  1.0000
  H   H42       1.0  0.6051123802764172  0.4745131632526667  0.23385392425669427  1.0000
  H   H43       1.0  0.3955213161171322  0.3066804592386592  0.6996944220115979  1.0000
  H   H44       1.0  0.6044786836579298  0.693319541211937  0.3003055779762174  1.0000
  H   H45       1.0  0.26851372758622  0.37419079630772684  0.42633082034187436  1.0000
  H   H46       1.0  0.7314862727019618  0.6258092030908023  0.5736691795185643  1.0000
  H   H47       1.0  0.18441434833255282  0.8122070575386667  0.10540186197669038  1.0000
  H   H48       1.0  0.8155856525084656  0.18779294290571813  0.8945981377024907  1.0000
  H   H49       1.0  0.12897797416407836  0.9134086920696006  0.42312900644633034  1.0000
  H   H50       1.0  0.8710220261241033  0.08659130732892853  0.5768709934141082  1.0000
  H   H51       1.0  0.08014661206965829  0.09002020066851311  0.4063075133601865  1.0000
  H   H52       1.0  0.9198533877054037  0.909979799782083  0.593692486627629  1.0000
  H   H53       1.0  0.3233814434927485  0.920744378502322  0.49835434957254116  1.0000
  H   H54       1.0  0.6766185567954331  0.07925562089620695  0.5016456502878974  1.0000
  H   H55       1.0  0.1221503597417544  0.03126227939751094  0.580625097498342  1.0000
  H   H56       1.0  0.877849640541852  0.9687377200085284  0.41937490309776354  1.0000
  H   H57       1.0  0.31999765094126587  0.24933989840948034  0.5650859446011574  1.0000
  H   H58       1.0  0.6800023488337962  0.7506601020411157  0.43491405538665806  1.0000
  H   H59       1.0  0.3255025153169594  0.9270748748807112  0.028400719851760455  1.0000
  H   H60       1.0  0.6744974844581025  0.07292512556988483  0.971599280136055  1.0000
  C   C1        1.0  0.1700910470865054  0.5651238957782537  0.10415040375787823  1.0000
  C   C2        1.0  0.8299089526885566  0.43487610467234233  0.8958495962299372  1.0000
  C   C3        1.0  0.19889427494725706  0.613187488533602  0.1963445413384234  1.0000
  C   C4        1.0  0.8011057253409245  0.3868125108649271  0.8036554585220153  1.0000
  C   C5        1.0  0.21795129664505028  0.5028255418845623  0.2718370114029216  1.0000
  C   C6        1.0  0.7820487036431312  0.4971744575139668  0.728162988457517  1.0000
  C   C7        1.0  0.06566155986281845  0.4811300261434068  0.3186515475148833  1.0000
  C   C8        1.0  0.9343384404253631  0.5188699732551225  0.6813484523455555  1.0000
  C   C9        1.0  0.039702133636599184  0.4299934305530219  0.2261364393761743  1.0000
  C   C10       1.0  0.9602978661384628  0.5700065698975743  0.7738635606116412  1.0000
  C   C11       1.0  0.18115511986940405  0.29080419876632374  0.1610976506390741  1.0000
  C   C12       1.0  0.8188448799056578  0.7091958016842723  0.8389023493487414  1.0000
  C   C13       1.0  0.3311048620155282  0.3134145608245603  0.11341204052100931  1.0000
  C   C14       1.0  0.6688951382726535  0.6865854385739688  0.8865879593394294  1.0000
  C   C15       1.0  0.3128868727401927  0.42365108492683407  0.03877710521109286  1.0000
  C   C16       1.0  0.687113127547989  0.5763489144716951  0.9612228946493457  1.0000
  C   C17       1.0  0.019453455915758505  0.5410163569839879  0.15224656879280615  1.0000
  C   C18       1.0  0.9805465438593036  0.45898364346660814  0.8477534311950093  1.0000
  C   C19       1.0  0.36052950401705147  0.3624515215770908  0.20505006172431717  1.0000
  C   C20       1.0  0.6394704962711303  0.6375484778214383  0.7949499381361216  1.0000
  C   C21       1.0  0.15352496806035273  0.6660296387009534  0.023203671899587417  1.0000
  C   C22       1.0  0.8464750322278288  0.33397036069757574  0.9767963279608511  1.0000
  C   C23       1.0  0.20006398714088588  0.8687345464584579  0.9582474341793459  1.0000
  C   C24       1.0  0.7999360126341761  0.13126545399213832  0.04175256580846948  1.0000
  C   C25       1.0  0.14363948834140575  0.8877920477040262  0.8776113718657614  1.0000
  C   C26       1.0  0.8563605114336563  0.1122079527465699  0.12238862812205399  1.0000
  C   C27       1.0  0.17381716959955798  0.9789316586169302  0.8067058155634715  1.0000
  C   C28       1.0  0.8261828306886237  0.021068340781598954  0.19329418429696707  1.0000
  C   C29       1.0  0.2607535969628933  0.04874677386426128  0.8139384549525589  1.0000
  C   C30       1.0  0.7392464028121687  0.9512532265863347  0.18606154503525657  1.0000
  C   C31       1.0  0.31243178824338746  0.02797637837660647  0.8956099665230678  1.0000
  C   C32       1.0  0.6875682115316745  0.9720236220739896  0.10439003346474762  1.0000
  C   C33       1.0  0.2417682059735896  0.5599774415102186  0.3628186522041976  1.0000
  C   C34       1.0  0.7582317938014722  0.4400225589403776  0.6371813477836178  1.0000
  C   C35       1.0  0.29898838859988736  0.49655463762776536  0.522682362738066  1.0000
  C   C36       1.0  0.7010116116837193  0.5034453617782738  0.47731763785803955  1.0000
  C   C37       1.0  0.2946638648782954  0.6240282024726831  0.5552225685354094  1.0000
  C   C38       1.0  0.7053361348967666  0.375971797977913  0.444777431452406  1.0000
  C   C39       1.0  0.33147828980938054  0.6339053160400613  0.6420092682908323  1.0000
  C   C40       1.0  0.668521710474226  0.36609468336597795  0.3579907323052731  1.0000
  C   C41       1.0  0.36849478236649014  0.5205013221753381  0.6966694735480568  1.0000
  C   C42       1.0  0.6315052174085716  0.4794986782752581  0.30333052643975866  1.0000
  C   C43       1.0  0.367716809496484  0.3991668989073084  0.6606871688977263  1.0000
  C   C44       1.0  0.6322831907916977  0.6008331004912207  0.33931283096271236  1.0000
  C   C45       1.0  0.2780951366740719  0.9299909734995214  0.20270124733730563  1.0000
  C   C46       1.0  0.7219048631009902  0.07000902695107465  0.7972987526505099  1.0000
  C   C47       1.0  0.31296616036838076  0.940002595400836  0.3024538336414547  1.0000
  C   C48       1.0  0.6870338394066813  0.05999740504976006  0.6975461663463607  1.0000
  C   C49       1.0  0.17443718375363373  0.9930400209332154  0.4108621883487764  1.0000
  C   C50       1.0  0.8255628165345478  0.006959978465313968  0.5891378115116622  1.0000
  C   C51       1.0  0.21906152805905618  0.014000008461328678  0.5012611221141443  1.0000
  C   C52       1.0  0.7809384722291253  0.9859999909372006  0.49873887774629433  1.0000
  C   C53       1.0  0.25785860751537787  0.13768628673202093  0.495941062196925  1.0000
  C   C54       1.0  0.7421413922596842  0.8623137137185751  0.5040589377908904  1.0000
  N   N1        1.0  0.1828918794645991  0.7809414435827954  0.03406846266059752  1.0000
  N   N2        1.0  0.8171081203104629  0.21905855686780062  0.9659315373272179  1.0000
  N   N3        1.0  0.2804545604600171  0.9410667038086523  0.9649389712191893  1.0000
  N   N4        1.0  0.719545439315045  0.0589332966419436  0.03506102876862624  1.0000
  N   N5        1.0  0.26946490525633404  0.4710479434329411  0.435314917795585  1.0000
  N   N6        1.0  0.7305350945187281  0.5289520570176549  0.5646850821922303  1.0000
  N   N7        1.0  0.33475760533758697  0.3868450605652072  0.575894032935472  1.0000
  N   N8        1.0  0.6652423949505945  0.6131549388333221  0.42410596692496666  1.0000
  O   O1        1.0  0.12370000049710451  0.6416602520550169  0.9480143197350712  1.0000
  O   O2        1.0  0.8762999992779574  0.3583397483955792  0.051985680252744165  1.0000
  O   O3        1.0  0.235997939397932  0.6787779315879543  0.369888451156895  1.0000
  O   O4        1.0  0.764002060372555  0.3212220688701518  0.6301115495665872  1.0000
  O   O5        1.0  0.38918375888900913  0.9153587552430977  0.11116229910861676  1.0000
  O   O6        1.0  0.6108162408860528  0.08464124520749841  0.8888377008791987  1.0000
  O   O7        1.0  0.14615653864784744  0.9340133963613969  0.21842177177132668  1.0000
  O   O8        1.0  0.8538434611272144  0.0659866040891992  0.7815782282164888  1.0000
  O   O9        1.0  0.24623378032838802  0.21535879643751493  0.42716539583554924  1.0000
  O   O10       1.0  0.7537662199597936  0.7846412029610143  0.5728346040248894  1.0000
  O   O11       1.0  0.30215659152702834  0.15663264980161742  0.5714532283594655  1.0000
  O   O12       1.0  0.6978434087611534  0.8433673495969117  0.42854677150097314  1.0000
  O   O13       1.0  0.44994058084976213  0.8992264795096222  0.2911585386833019  1.0000
  O   O14       1.0  0.5500594189252997  0.10077352094097411  0.7088414613045136  1.0000
