data_image0
_chemical_formula_structural       H40C80O14S16Cl8
_chemical_formula_sum              "H40 C80 O14 S16 Cl8"
_cell_length_a       17.81333211497388
_cell_length_b       15.109366325983999
_cell_length_c       7.1652632834793115
_cell_angle_alpha    90.0
_cell_angle_beta     90.0
_cell_angle_gamma    90.0

_space_group_name_H-M_alt    "P 1"
_space_group_IT_number       1

loop_
  _space_group_symop_operation_xyz
  'x, y, z'

loop_
  _atom_site_type_symbol
  _atom_site_label
  _atom_site_symmetry_multiplicity
  _atom_site_fract_x
  _atom_site_fract_y
  _atom_site_fract_z
  _atom_site_occupancy
  H   H1        1.0  0.5388390346088865  0.30183921890602455  0.8970783913579774  1.0000
  H   H2        1.0  0.4611609656732685  0.698160781359771  0.8970783913579774  1.0000
  H   H3        1.0  0.961160965814346  0.8018392187080018  0.10292160815644218  1.0000
  H   H4        1.0  0.03883903446780903  0.1981607815577938  0.10292160815644218  1.0000
  H   H5        1.0  0.7598957013001185  0.97276124378054  0.5771824448566253  1.0000
  H   H6        1.0  0.24010429842065917  0.027238756485255654  0.5771824448566253  1.0000
  H   H7        1.0  0.7401042985617367  0.47276124397856273  0.42281755605341637  1.0000
  H   H8        1.0  0.25989570115904104  0.5272387562872328  0.42281755605341637  1.0000
  H   H9        1.0  0.6923869667052511  0.4928274408963381  0.9135232776570867  1.0000
  H   H10       1.0  0.30761303301552656  0.5071725587076163  0.9135232776570867  1.0000
  H   H11       1.0  0.8076130331566042  0.9928274413601565  0.08647672325295498  1.0000
  H   H12       1.0  0.19238696656417362  0.007172558905639097  0.08647672325295498  1.0000
  H   H13       1.0  0.8107863832987979  0.39772568354938204  0.8989411617087577  1.0000
  H   H14       1.0  0.1892136164219797  0.6022743160545724  0.8989411617087577  1.0000
  H   H15       1.0  0.6892136165630572  0.8977256840132004  0.10105883780566188  1.0000
  H   H16       1.0  0.3107863831577205  0.10227431625259521  0.10105883780566188  1.0000
  H   H17       1.0  0.06495823142641141  0.815385391696608  0.6154834631364084  1.0000
  H   H18       1.0  0.9350417688557436  0.1846146085691876  0.6154834631364084  1.0000
  H   H19       1.0  0.43504176871466604  0.3153853912327896  0.3845165363780111  1.0000
  H   H20       1.0  0.5649582310061116  0.6846146083711648  0.3845165363780111  1.0000
  H   H21       1.0  0.9483888696937806  0.9168303753531399  0.5868590871873914  1.0000
  H   H22       1.0  0.05161113002699709  0.08316962425081459  0.5868590871873914  1.0000
  H   H23       1.0  0.5516111301680746  0.41683037555116265  0.41314091372265027  1.0000
  H   H24       1.0  0.44838886955270313  0.5831696247146329  0.41314091372265027  1.0000
  H   H25       1.0  0.946107857374595  0.11271227881153986  0.2757979591003128  1.0000
  H   H26       1.0  0.0538921423461827  0.8872877207924146  0.2757979591003128  1.0000
  H   H27       1.0  0.5538921424872603  0.6127122792753583  0.7242020404141067  1.0000
  H   H28       1.0  0.44610785779489476  0.3872877209904374  0.7242020404141067  1.0000
  H   H29       1.0  0.8877704254279655  0.018893291342673767  0.31517182141888006  1.0000
  H   H30       1.0  0.11222957429281229  0.9811067082612807  0.31517182141888006  1.0000
  H   H31       1.0  0.6122295744338898  0.5188932918064921  0.6848281780955394  1.0000
  H   H32       1.0  0.3877704252868879  0.4811067084593034  0.6848281780955394  1.0000
  H   H33       1.0  0.9418708814111504  0.060429980338075964  0.958115646054309  1.0000
  H   H34       1.0  0.058129118309627296  0.9395700199277196  0.958115646054309  1.0000
  H   H35       1.0  0.5581291184507048  0.5604299801400532  0.041884354855732706  1.0000
  H   H36       1.0  0.4418708812700729  0.43957002012574237  0.041884354855732706  1.0000
  H   H37       1.0  0.925471225349361  0.9493727837766102  0.029596862196112256  1.0000
  H   H38       1.0  0.07452877493279403  0.050627216489185424  0.029596862196112256  1.0000
  H   H39       1.0  0.5745287750738715  0.44937278397463293  0.9704031373183073  1.0000
  H   H40       1.0  0.42547122520828345  0.5506272162911626  0.9704031373183073  1.0000
  C   C1        1.0  0.5622754999094501  0.057599435424590666  0.7301798416902661  1.0000
  C   C2        1.0  0.4377245003727049  0.9424005648412048  0.7301798416902661  1.0000
  C   C3        1.0  0.9377245005137823  0.557599435226568  0.2698201592197756  1.0000
  C   C4        1.0  0.06227549976837259  0.4424005643773865  0.2698201592197756  1.0000
  C   C5        1.0  0.625496142332287  0.11548731974279938  0.7345823261143531  1.0000
  C   C6        1.0  0.37450385738849074  0.8845126805229961  0.7345823261143531  1.0000
  C   C7        1.0  0.8745038575295683  0.6154873195447766  0.2654176734000665  1.0000
  C   C8        1.0  0.12549614275258675  0.38451268072101896  0.2654176734000665  1.0000
  C   C9        1.0  0.5740078568121949  0.9643412268681686  0.7067594810753365  1.0000
  C   C10       1.0  0.42599214346996006  0.035658772735785924  0.7067594810753365  1.0000
  C   C11       1.0  0.9259921430496604  0.4643412270661913  0.2932405198347052  1.0000
  C   C12       1.0  0.07400785667111744  0.5356587731996042  0.2932405198347052  1.0000
  C   C13       1.0  0.4879744190416306  0.09338185596662424  0.7512389729503709  1.0000
  C   C14       1.0  0.512025580679147  0.9066181442991713  0.7512389729503709  1.0000
  C   C15       1.0  0.01202558109944688  0.5933818557686015  0.24876102656404872  1.0000
  C   C16       1.0  0.9879744191827081  0.40661814449719413  0.24876102656404872  1.0000
  C   C17       1.0  0.6155523070713308  0.20492332723942716  0.7868300349826606  1.0000
  C   C18       1.0  0.3844476926494469  0.7950766730263684  0.7868300349826606  1.0000
  C   C19       1.0  0.8844476927905244  0.7049233270414044  0.213169964531759  1.0000
  C   C20       1.0  0.1155523069302533  0.2950766732243912  0.213169964531759  1.0000
  C   C21       1.0  0.48225169409932134  0.1810172081999527  0.823761148262214  1.0000
  C   C22       1.0  0.5177483061828336  0.8189827914040017  0.823761148262214  1.0000
  C   C23       1.0  0.017748306041756163  0.6810172080019299  0.17623885125220548  1.0000
  C   C24       1.0  0.9822516942403988  0.3189827916020245  0.17623885125220548  1.0000
  C   C25       1.0  0.645318737999449  0.9373985608941546  0.6370256178198087  1.0000
  C   C26       1.0  0.3546812617213287  0.06260143870979978  0.6370256178198087  1.0000
  C   C27       1.0  0.8546812618624062  0.43739856109217745  0.3629743816946108  1.0000
  C   C28       1.0  0.14531873841974882  0.5626014391736182  0.3629743816946108  1.0000
  C   C29       1.0  0.6976136946076482  0.08260473358525955  0.6893047421422447  1.0000
  C   C30       1.0  0.3023863051131295  0.9173952660186949  0.6893047421422447  1.0000
  C   C31       1.0  0.8023863052542071  0.5826047340490779  0.3106952573721749  1.0000
  C   C32       1.0  0.1976136944665707  0.4173952662167177  0.3106952573721749  1.0000
  C   C33       1.0  0.5444211940475697  0.23554301439363814  0.839476854098123  1.0000
  C   C34       1.0  0.455578805673208  0.7644569858721575  0.839476854098123  1.0000
  C   C35       1.0  0.9555788058142856  0.7355430141956153  0.16052314541629653  1.0000
  C   C36       1.0  0.044421193906492226  0.2644569860701802  0.16052314541629653  1.0000
  C   C37       1.0  0.7059010346205763  0.9950193327529177  0.6304488225039055  1.0000
  C   C38       1.0  0.2940989651002014  0.004980667512877913  0.6304488225039055  1.0000
  C   C39       1.0  0.7940989652412789  0.49501933295094047  0.36955117840613616  1.0000
  C   C40       1.0  0.2059010350408761  0.5049806673148551  0.36955117840613616  1.0000
  C   C41       1.0  0.7622896582378076  0.14067713126689144  0.6954753695498855  1.0000
  C   C42       1.0  0.23771034204434746  0.859322868337063  0.6954753695498855  1.0000
  C   C43       1.0  0.737710342185425  0.6406771317307098  0.3045246299645341  1.0000
  C   C44       1.0  0.26228965809673005  0.35932286853508577  0.3045246299645341  1.0000
  C   C45       1.0  0.6799010152524605  0.2625281685823229  0.8048936726857473  1.0000
  C   C46       1.0  0.3200989844683172  0.7374718316834726  0.8048936726857473  1.0000
  C   C47       1.0  0.8200989846093947  0.7625281683843002  0.19510632682867227  1.0000
  C   C48       1.0  0.179901015111383  0.23747183188149543  0.19510632682867227  1.0000
  C   C49       1.0  0.8515438931972241  0.6230821906680385  0.7680679665587462  1.0000
  C   C50       1.0  0.14845610652355357  0.37691780893591603  0.7680679665587462  1.0000
  C   C51       1.0  0.648456106664631  0.12308219086606119  0.23193203295567336  1.0000
  C   C52       1.0  0.3515438936175239  0.8769178093997344  0.23193203295567336  1.0000
  C   C53       1.0  0.8946318879107346  0.6943261599236383  0.7134363090029725  1.0000
  C   C54       1.0  0.10536811181004314  0.3056738403421573  0.7134363090029725  1.0000
  C   C55       1.0  0.6053681119511206  0.19432615945981993  0.286563690511447  1.0000
  C   C56       1.0  0.39463188833103435  0.8056738401441345  0.286563690511447  1.0000
  C   C57       1.0  0.7470904126248877  0.5180805734081776  0.8733896372557582  1.0000
  C   C58       1.0  0.25290958709588995  0.48191942619577677  0.8733896372557582  1.0000
  C   C59       1.0  0.7529095872369674  0.01808057360620044  0.12661036365428335  1.0000
  C   C60       1.0  0.24709041304518753  0.981919425997754  0.12661036365428335  1.0000
  C   C61       1.0  0.8093765830526728  0.467890573136898  0.8671116013734318  1.0000
  C   C62       1.0  0.19062341722948217  0.5321094271288975  0.8671116013734318  1.0000
  C   C63       1.0  0.6906234173705597  0.9678905729388753  0.13288839953660989  1.0000
  C   C64       1.0  0.3093765829115953  0.032109427326920306  0.13288839953660989  1.0000
  C   C65       1.0  0.006950953319728276  0.7940556315301761  0.6350113331481935  1.0000
  C   C66       1.0  0.9930490464010494  0.2059443680737783  0.6350113331481935  1.0000
  C   C67       1.0  0.4930490462599719  0.2940556317281989  0.36498866776184824  1.0000
  C   C68       1.0  0.5069509534608058  0.7059443685375967  0.36498866776184824  1.0000
  C   C69       1.0  0.9460253534393114  0.8471265494429284  0.6257901060437631  1.0000
  C   C70       1.0  0.05397464684284363  0.15287345016102608  0.6257901060437631  1.0000
  C   C71       1.0  0.5539746469839211  0.3471265496409512  0.37420989347065653  1.0000
  C   C72       1.0  0.4460253532982339  0.6528734499630032  0.37420989347065653  1.0000
  C   C73       1.0  0.9426919855092267  0.04015738363273055  0.26093325897888453  1.0000
  C   C74       1.0  0.05730801421155095  0.9598426159712239  0.26093325897888453  1.0000
  C   C75       1.0  0.5573080143526284  0.5401573840965489  0.7390667419311572  1.0000
  C   C76       1.0  0.4426919859295266  0.45984261616924665  0.7390667419311572  1.0000
  C   C77       1.0  0.9576490226474967  0.009728272968484494  0.06074363673467892  1.0000
  C   C78       1.0  0.04235097707328106  0.990271727297311  0.06074363673467892  1.0000
  C   C79       1.0  0.5423509772143585  0.5097282727704617  0.9392563627797406  1.0000
  C   C80       1.0  0.4576490230677965  0.4902717268334927  0.9392563627797406  1.0000
  O   O1        1.0  0.7500371560899061  0.22729844428312507  0.7553711365330079  1.0000
  O   O2        1.0  0.24996284363087162  0.7727015553208293  0.7553711365330079  1.0000
  O   O3        1.0  0.7499628437719491  0.7272984440851022  0.2446288629814116  1.0000
  O   O4        1.0  0.2500371559488285  0.2727015555188521  0.2446288629814116  1.0000
  O   O5        1.0  0.6795293138797323  0.3385315134760879  0.8644379801480723  1.0000
  O   O6        1.0  0.3204706858410455  0.6614684867897077  0.8644379801480723  1.0000
  O   O7        1.0  0.820470685982123  0.8385315132780651  0.13556201936634735  1.0000
  O   O8        1.0  0.17952931373865474  0.16146848698773048  0.13556201936634735  1.0000
  O   O9        1.0  0.826881205320277  0.12091070734437463  0.6525633929992212  1.0000
  O   O10       1.0  0.17311879440050074  0.879089292921421  0.6525633929992212  1.0000
  O   O11       1.0  0.6731187945415783  0.6209107071463518  0.34743660791082054  1.0000
  O   O12       1.0  0.3268812057405768  0.3790892924576026  0.34743660791082054  1.0000
  O   O13       1.0  0.0  0.0  0.37602228046695046  1.0000
  O   O14       1.0  0.5000000001410775  0.4999999998019772  0.6239777190474691  1.0000
  S   S1        1.0  0.7555031154832165  0.6282743812806313  0.8112996871173219  1.0000
  S   S2        1.0  0.24449688423756122  0.3717256183233232  0.8112996871173219  1.0000
  S   S3        1.0  0.7444968843786387  0.128274381478654  0.18870031379271981  1.0000
  S   S4        1.0  0.255503115342139  0.8717256187871415  0.18870031379271981  1.0000
  S   S5        1.0  0.8915344236270243  0.5188559235947605  0.7986012437524023  1.0000
  S   S6        1.0  0.10846557609375337  0.4811440766710351  0.7986012437524023  1.0000
  S   S7        1.0  0.6084655762348309  0.01885592379278327  0.20139875576201732  1.0000
  S   S8        1.0  0.39153442348594686  0.9811440764730123  0.20139875576201732  1.0000
  S   S9        1.0  0.9913382474442173  0.6841603576863962  0.6880335746164119  1.0000
  S   S10       1.0  0.008661752276560316  0.31583964257939945  0.6880335746164119  1.0000
  S   S11       1.0  0.5086617524176378  0.18416035722257773  0.3119664248980076  1.0000
  S   S12       1.0  0.49133824730313985  0.8158396423813766  0.3119664248980076  1.0000
  S   S13       1.0  0.8595044639138505  0.7990611869167006  0.6643960872974871  1.0000
  S   S14       1.0  0.14049553580692725  0.20093881334909502  0.6643960872974871  1.0000
  S   S15       1.0  0.6404955359480047  0.2990611864528822  0.3356039122169324  1.0000
  S   S16       1.0  0.35950446433415023  0.7009388131510722  0.3356039122169324  1.0000
  Cl  Cl1       1.0  0.3995532814445837  0.221512660279089  0.9189359650163107  1.0000
  Cl  Cl2       1.0  0.600446718276194  0.7784873399867066  0.9189359650163107  1.0000
  Cl  Cl3       1.0  0.1004467186964938  0.7215126600810662  0.08106403589373103  1.0000
  Cl  Cl4       1.0  0.8995532815856611  0.27848733952288823  0.08106403589373103  1.0000
  Cl  Cl5       1.0  0.658654289061247  0.8355232468147765  0.5328695609557532  1.0000
  Cl  Cl6       1.0  0.3413457106595307  0.1644767534510191  0.5328695609557532  1.0000
  Cl  Cl7       1.0  0.8413457108006082  0.33552324635095815  0.46713043995428843  1.0000
  Cl  Cl8       1.0  0.1586542894815468  0.6644767532529964  0.46713043995428843  1.0000
