data_image0
_chemical_formula_structural       H42C36N8O8Cl2
_chemical_formula_sum              "H42 C36 N8 O8 Cl2"
_cell_length_a       6.539520800684312
_cell_length_b       12.103786814804682
_cell_length_c       12.339808464631444
_cell_angle_alpha    97.92517358671508
_cell_angle_beta     94.4696195936377
_cell_angle_gamma    102.93739445813281

_space_group_name_H-M_alt    "P 1"
_space_group_IT_number       1

loop_
  _space_group_symop_operation_xyz
  'x, y, z'

loop_
  _atom_site_type_symbol
  _atom_site_label
  _atom_site_symmetry_multiplicity
  _atom_site_fract_x
  _atom_site_fract_y
  _atom_site_fract_z
  _atom_site_occupancy
  H   H1        1.0  0.39620322450615447  0.7163426572761659  0.4765082062170273  1.0000
  H   H2        1.0  0.6037967760779122  0.28365734332755954  0.5234917934741098  1.0000
  H   H3        1.0  0.10459965362668759  0.5327846901802528  0.5810338378833645  1.0000
  H   H4        1.0  0.895400346799184  0.4672153097127838  0.4189661626309658  1.0000
  H   H5        1.0  0.11988641221085629  0.6245672846233287  0.7042441692856795  1.0000
  H   H6        1.0  0.8801135880247625  0.3754327151326539  0.29575583040523074  1.0000
  H   H7        1.0  0.5766488267594041  0.5117679692255529  0.29731344625898404  1.0000
  H   H8        1.0  0.4233511734762147  0.4882320305304298  0.7026865534319261  1.0000
  H   H9        1.0  0.3765890774520898  0.5881501196246844  0.3221494427325508  1.0000
  H   H10       1.0  0.6234109229737818  0.41184988026835206  0.6778505577817794  1.0000
  H   H11       1.0  0.567660806187707  0.8373279348506577  0.7612976686538251  1.0000
  H   H12       1.0  0.4323391940479119  0.16267206490532507  0.23870233103708513  1.0000
  H   H13       1.0  0.34752779717825233  0.7927165158816359  0.6591573323694584  1.0000
  H   H14       1.0  0.6524722015290337  0.20728348387386109  0.34084266732811497  1.0000
  H   H15       1.0  0.4946664952101261  0.003650708643204973  0.6759107097869382  1.0000
  H   H16       1.0  0.5053335050254927  0.9963492911127777  0.3240892899039719  1.0000
  H   H17       1.0  0.5234560089714765  0.9336143898589527  0.5441690585187288  1.0000
  H   H18       1.0  0.476543991802843  0.06638561088182666  0.4558309419958284  1.0000
  H   H19       1.0  0.7452001262221623  0.9821277329598918  0.6468775059877631  1.0000
  H   H20       1.0  0.2547998742037094  0.01787226693314475  0.3531224945265672  1.0000
  H   H21       1.0  0.7809787257192397  0.6293123851322894  0.8485022679586482  1.0000
  H   H22       1.0  0.21902127333649432  0.37068761547095047  0.15149773173915201  1.0000
  H   H23       1.0  0.978351673167987  0.7176996346805358  0.030187885254251704  1.0000
  H   H24       1.0  0.021648327257884636  0.2823003652125009  0.9698121152600786  1.0000
  H   H25       1.0  0.26900584176958964  0.016114109194183265  0.8935403739673102  1.0000
  H   H26       1.0  0.7309941586562819  0.9838858906988532  0.10645962654702017  1.0000
  H   H27       1.0  0.07573570723465309  0.924929667377501  0.710142171898845  1.0000
  H   H28       1.0  0.9242642930009658  0.07507033237848158  0.2898578277920652  1.0000
  H   H29       1.0  0.8404066413618894  0.7377866343714745  0.22477903416563086  1.0000
  H   H30       1.0  0.1595933575356496  0.2622133655210766  0.7752209663553626  1.0000
  H   H31       1.0  0.9485220464061612  0.8896085434087073  0.45323789749106247  1.0000
  H   H32       1.0  0.05147795382945758  0.11039145634727533  0.5467621021998478  1.0000
  H   H33       1.0  0.7292509008088705  0.8896782371806173  0.3463795127015255  1.0000
  H   H34       1.0  0.2707490994267483  0.11032176257536527  0.6536204869893847  1.0000
  H   H35       1.0  0.9819567670685893  0.5832736294821014  0.18931840820477563  1.0000
  H   H36       1.0  0.01804323316702961  0.41672637027388126  0.8106815914861345  1.0000
  H   H37       1.0  0.7074115767573679  0.4520057072339549  0.92472811700454  1.0000
  H   H38       1.0  0.29258842347825104  0.5479942925220279  0.07527188268637014  1.0000
  H   H39       1.0  0.46173988922594417  0.2544765143454153  0.032551648730240856  1.0000
  H   H40       1.0  0.5382601110096746  0.7455234854105673  0.9674483509606694  1.0000
  H   H41       1.0  0.4563964818474499  0.26194015346799765  0.8821722697347982  1.0000
  H   H42       1.0  0.5436035187366168  0.7380598471357278  0.11782772995633892  1.0000
  C   C1        1.0  0.8029264571202361  0.7152602236952198  0.6560950570988398  1.0000
  C   C2        1.0  0.19707354311538264  0.28473977606076284  0.34390494259207033  1.0000
  C   C3        1.0  0.8815321608560658  0.6310906970048769  0.5884688704049743  1.0000
  C   C4        1.0  0.11846783956980582  0.36890930288815976  0.411531130109356  1.0000
  C   C5        1.0  0.61239356208675  0.6121055921055938  0.44893481649162315  1.0000
  C   C6        1.0  0.3876064366205361  0.38789440764990335  0.5510651832059502  1.0000
  C   C7        1.0  0.6224496927768087  0.7416696107084096  0.6139297114668196  1.0000
  C   C8        1.0  0.3775503059304774  0.25833038904708744  0.38607028823075384  1.0000
  C   C9        1.0  0.5192155948063663  0.8272020195032911  0.6727710600501915  1.0000
  C   C10       1.0  0.4807844057777005  0.17279798110043446  0.3272289396409456  1.0000
  C   C11       1.0  0.5749547167328942  0.9432662876871623  0.6323350905886178  1.0000
  C   C12       1.0  0.4250452840414251  0.05673371305361699  0.3676649099259392  1.0000
  C   C13       1.0  0.9160638633338163  0.7701029651170929  0.7658894105125161  1.0000
  C   C14       1.0  0.08393613690180254  0.22989703463888983  0.23411058917839409  1.0000
  C   C15       1.0  0.8903588712497599  0.7132534708724262  0.8573417401139767  1.0000
  C   C16       1.0  0.10964112917611184  0.28674652902061043  0.14265826040035376  1.0000
  C   C17       1.0  0.9988235479557419  0.7634183658245318  0.9603483952796518  1.0000
  C   C18       1.0  0.0011764524701297337  0.23658163406850474  0.03965160523467842  1.0000
  C   C19       1.0  0.13496656864494658  0.8720402910554945  0.9718865995587845  1.0000
  C   C20       1.0  0.8650334319391202  0.12795970954823085  0.02811340013235249  1.0000
  C   C21       1.0  0.1630451281618995  0.9311103618928493  0.882682154560228  1.0000
  C   C22       1.0  0.8369548707356396  0.06888963799970174  0.11731784596076547  1.0000
  C   C23       1.0  0.05392118746187386  0.8793083584405245  0.78019656739648  1.0000
  C   C24       1.0  0.9460788129639977  0.12069164145251207  0.21980343311785022  1.0000
  C   C25       1.0  0.10342526967074454  0.7255517830840423  0.34294318746072106  1.0000
  C   C26       1.0  0.896574731103575  0.274448217656737  0.6570568130538361  1.0000
  C   C27       1.0  0.9241467903067684  0.774494143470746  0.30620267352351144  1.0000
  C   C28       1.0  0.0758532101191032  0.22550585642229057  0.6937973269908189  1.0000
  C   C29       1.0  0.8641459632673816  0.8563547042188264  0.37132513251366767  1.0000
  C   C30       1.0  0.1358540373166852  0.14364529638489917  0.6286748671774693  1.0000
  C   C31       1.0  0.7371642267898536  0.4581410440591087  0.10425226661326248  1.0000
  C   C32       1.0  0.2628357734457652  0.5418589556968739  0.8957477330776478  1.0000
  C   C33       1.0  0.6483160946625914  0.40531091379821377  0.9896880510875696  1.0000
  C   C34       1.0  0.35168390404469474  0.5946890859572833  0.010311948610003807  1.0000
  C   C35       1.0  0.5138401758794064  0.30209229291158574  0.9668831565614993  1.0000
  C   C36       1.0  0.48615982454646517  0.6979077069814508  0.033116843952831  1.0000
  N   N1        1.0  0.7859810819737298  0.5821719948087348  0.4865740910480528  1.0000
  N   N2        1.0  0.21401891826188882  0.4178280049472477  0.5134259086428573  1.0000
  N   N3        1.0  0.5288970340316306  0.6895102921371794  0.5111697926547989  1.0000
  N   N4        1.0  0.4711029662039881  0.3104897076188033  0.48883020703611113  1.0000
  N   N5        1.0  0.05317325318321817  0.5991424518282948  0.6248420851855335  1.0000
  N   N6        1.0  0.9468267470524006  0.4008575479276878  0.3751579145053767  1.0000
  N   N7        1.0  0.513370960018149  0.5660854282316251  0.348602488233319  1.0000
  N   N8        1.0  0.4866290402174698  0.4339145715243574  0.6513975114575912  1.0000
  O   O1        1.0  0.21842430992620626  0.7730701043239251  0.4312769463913164  1.0000
  O   O2        1.0  0.7815756904996654  0.22692989556911156  0.5687230541230138  1.0000
  O   O3        1.0  0.13125675654697058  0.6356331645857507  0.28169171823300443  1.0000
  O   O4        1.0  0.8687432436886482  0.36436683517023183  0.7183082814579057  1.0000
  O   O5        1.0  0.895605042559832  0.5485905221175182  0.10907312164880657  1.0000
  O   O6        1.0  0.1043949578660395  0.45140947777551826  0.8909268788655237  1.0000
  O   O7        1.0  0.6688389246441951  0.41901906286257934  0.18635636689267185  1.0000
  O   O8        1.0  0.33116107593987154  0.5809809377411461  0.8136436327984652  1.0000
  Cl  Cl1       1.0  0.2724911598041266  0.9337948485245119  0.09971772649651442  1.0000
  Cl  Cl2       1.0  0.7275088404314921  0.06620515123147072  0.9002822731943957  1.0000
