data_image0
_chemical_formula_structural       H10C40F10
_chemical_formula_sum              "H10 C40 F10"
_cell_length_a       7.2225782850082405
_cell_length_b       7.884317065511431
_cell_length_c       14.53628344497575
_cell_angle_alpha    82.65995431087943
_cell_angle_beta     81.08232549529211
_cell_angle_gamma    65.05382459822198

_space_group_name_H-M_alt    "P 1"
_space_group_IT_number       1

loop_
  _space_group_symop_operation_xyz
  'x, y, z'

loop_
  _atom_site_type_symbol
  _atom_site_label
  _atom_site_symmetry_multiplicity
  _atom_site_fract_x
  _atom_site_fract_y
  _atom_site_fract_z
  _atom_site_occupancy
  H   H1        1.0  0.10655602162299779  0.14685364996047334  0.13932187835924467  1.0000
  H   H2        1.0  0.8934439786373973  0.8531463505326181  0.8606781215978677  1.0000
  H   H3        1.0  0.0845554633955068  0.8863160315649753  0.24896941683705295  1.0000
  H   H4        1.0  0.9154445368648884  0.11368396892811615  0.7510305831200594  1.0000
  H   H5        1.0  0.9219180622870543  0.9474988309020632  0.4124291796965675  1.0000
  H   H6        1.0  0.07808193797334084  0.05250116959102822  0.587570820260545  1.0000
  H   H7        1.0  0.7808154738500148  0.27088470096234485  0.46580559523160003  1.0000
  H   H8        1.0  0.21918452500471308  0.7291152995402448  0.5341944048394268  1.0000
  H   H9        1.0  0.8015573832173535  0.5322599585126039  0.3558479233924476  1.0000
  H   H10       1.0  0.19844261704304184  0.4677400419804875  0.6441520765646649  1.0000
  C   C1        1.0  0.9720656914664427  0.5045896037596252  0.1787909946694227  1.0000
  C   C2        1.0  0.02793430879395255  0.4954103967334663  0.8212090052876897  1.0000
  C   C3        1.0  0.9843328246885379  0.6364187892194925  0.1267701707162088  1.0000
  C   C4        1.0  0.01566717478714414  0.3635812098808794  0.8732298294051709  1.0000
  C   C5        1.0  0.9937886959211968  0.7831659683248283  0.07257840316401727  1.0000
  C   C6        1.0  0.006211304960152658  0.2168340307660456  0.927421596843448  1.0000
  C   C7        1.0  0.998738479750711  0.923777133146933  0.025029865629695537  1.0000
  C   C8        1.0  0.0012615205096842502  0.07622286734615846  0.974970134327417  1.0000
  C   C9        1.0  0.9569464084101672  0.356754031952143  0.2403645743949144  1.0000
  C   C10       1.0  0.04305359044456067  0.6432459685504465  0.7596354256761124  1.0000
  C   C11       1.0  0.036146447114096675  0.17288244052707635  0.21081630134604948  1.0000
  C   C12       1.0  0.9638535531462985  0.827117559966015  0.789183698611063  1.0000
  C   C13       1.0  0.022874035661518397  0.02739796347052359  0.2725988479018016  1.0000
  C   C14       1.0  0.977125965219831  0.9726020356203502  0.7274011521056637  1.0000
  C   C15       1.0  0.9311924451796041  0.06213188868069129  0.3642828528706379  1.0000
  C   C16       1.0  0.06880755367512391  0.9378681118218982  0.6357171472003889  1.0000
  C   C17       1.0  0.8515657614331719  0.24375981885195278  0.3942784885956285  1.0000
  C   C18       1.0  0.14843423804251027  0.7562401802484192  0.6057215115257513  1.0000
  C   C19       1.0  0.8635180609919118  0.3905414038170607  0.33312495354837207  1.0000
  C   C20       1.0  0.13648193926848345  0.6094585966760308  0.6668750464087404  1.0000
  C   C21       1.0  0.45037797264909546  0.5339649624745751  0.19698115257556023  1.0000
  C   C22       1.0  0.5496220262056323  0.4660350380280144  0.8030188474954667  1.0000
  C   C23       1.0  0.4667942329212566  0.6592982772322384  0.1412358712386859  1.0000
  C   C24       1.0  0.5332057679600929  0.3407017218586355  0.8587641287687794  1.0000
  C   C25       1.0  0.4817998436725665  0.7981118521921842  0.08215099101866138  1.0000
  C   C26       1.0  0.5182001565878287  0.2018881483009074  0.917849008938451  1.0000
  C   C27       1.0  0.4939948022401882  0.9294843850585831  0.028668962250160968  1.0000
  C   C28       1.0  0.5060051980202069  0.0705156154345085  0.9713310377069515  1.0000
  C   C29       1.0  0.43219192946531554  0.39013205784022775  0.25960267267507  1.0000
  C   C30       1.0  0.5678080699983967  0.6098679412581643  0.7403973267594648  1.0000
  C   C31       1.0  0.5161350535850879  0.2035101088851202  0.23409326607329428  1.0000
  C   C32       1.0  0.48386494526963997  0.7964898916174694  0.7659067339977325  1.0000
  C   C33       1.0  0.49930430305282897  0.05902405373004684  0.29541647025524786  1.0000
  C   C34       1.0  0.5006956958018989  0.9409759467725426  0.704583529815779  1.0000
  C   C35       1.0  0.393868128708251  0.09870463940620694  0.3842037508639099  1.0000
  C   C36       1.0  0.6061318715521442  0.9012953610868845  0.6157962490932025  1.0000
  C   C37       1.0  0.30972509473605647  0.2815290253531008  0.4121295606989755  1.0000
  C   C38       1.0  0.6902749061452932  0.7184709737377731  0.5878704393084899  1.0000
  C   C39       1.0  0.3299869248959968  0.423933848373243  0.35055670118077825  1.0000
  C   C40       1.0  0.6700130753643985  0.5760661521198485  0.6494432987763342  1.0000
  F   F1        1.0  0.615563175506089  0.1643542875519067  0.1483869371382326  1.0000
  F   F2        1.0  0.38443682475430635  0.8356457129411848  0.8516130628188799  1.0000
  F   F3        1.0  0.5844118691916146  0.8811185785364343  0.27067406352048845  1.0000
  F   F4        1.0  0.4155881296631132  0.11888142196615537  0.7293259365505385  1.0000
  F   F5        1.0  0.37452298150055513  0.9595853083787376  0.44335251498354294  1.0000
  F   F6        1.0  0.6254770187598401  0.04041469211435394  0.5566474849735696  1.0000
  F   F7        1.0  0.20860185451941515  0.31802959436676204  0.4984983283840505  1.0000
  F   F8        1.0  0.7913981463619343  0.681970404724112  0.5015016716234147  1.0000
  F   F9        1.0  0.24737763473035448  0.6000415632844489  0.3788491206768683  1.0000
  F   F10       1.0  0.7526223655300408  0.39995843720864255  0.6211508792802442  1.0000
