data_image0
_chemical_formula_structural       H50B2C40N6O16Br2
_chemical_formula_sum              "H50 B2 C40 N6 O16 Br2"
_cell_length_a       9.64954257423855
_cell_length_b       10.252861378765907
_cell_length_c       13.118089309005128
_cell_angle_alpha    97.3202330636834
_cell_angle_beta     110.68762291255109
_cell_angle_gamma    102.2597132537684

_space_group_name_H-M_alt    "P 1"
_space_group_IT_number       1

loop_
  _space_group_symop_operation_xyz
  'x, y, z'

loop_
  _atom_site_type_symbol
  _atom_site_label
  _atom_site_symmetry_multiplicity
  _atom_site_fract_x
  _atom_site_fract_y
  _atom_site_fract_z
  _atom_site_occupancy
  H   H1        1.0  0.5853921199725063  0.20069607822458546  0.27501365621668683  1.0000
  H   H2        1.0  0.41460787960260853  0.7993039223858477  0.7249863440483955  1.0000
  H   H3        1.0  0.537960946970989  0.03969498660280498  0.3938644483888251  1.0000
  H   H4        1.0  0.46203905364145437  0.9603050140087119  0.6061355518778554  1.0000
  H   H5        1.0  0.26635123890066903  0.9334109985606597  0.3712578121547117  1.0000
  H   H6        1.0  0.733648761485664  0.06658900105196172  0.6287421881090078  1.0000
  H   H7        1.0  0.050302074017870804  0.9959899847398819  0.2379357238407856  1.0000
  H   H8        1.0  0.9496979248814833  0.004010014648558366  0.7620642755857525  1.0000
  H   H9        1.0  0.5349842449175491  0.44845983423842495  0.10685109468841311  1.0000
  H   H10       1.0  0.4650157544314554  0.5515401653731126  0.8931489055737083  1.0000
  H   H11       1.0  0.2816382346110277  0.9381911453627308  0.7947718004945107  1.0000
  H   H12       1.0  0.7183617642883265  0.061808854025709625  0.20522819893202746  1.0000
  H   H13       1.0  0.47630938544548496  0.0023090389194246248  0.8934216555493093  1.0000
  H   H14       1.0  0.5236906151669584  0.9976909616920923  0.10657834471737121  1.0000
  H   H15       1.0  0.3950187778444853  0.10600738921389223  0.8050591784044462  1.0000
  H   H16       1.0  0.6049812227679581  0.8939926113976248  0.19494082186223438  1.0000
  H   H17       1.0  0.8582139798215556  0.3946618604367519  0.8432250101084606  1.0000
  H   H18       1.0  0.14178601975355934  0.6053381401736814  0.15677499015662164  1.0000
  H   H19       1.0  0.19917817010892797  0.5354192471788248  0.8046398320493409  1.0000
  H   H20       1.0  0.800821830277405  0.46458075243379643  0.19536016821437865  1.0000
  H   H21       1.0  0.9951206597642274  0.5094301995157962  0.7602123597634851  1.0000
  H   H22       1.0  0.004879340848216207  0.49056980109572096  0.23978764050319554  1.0000
  H   H23       1.0  0.07869095020581846  0.45129358285971993  0.4263502570975227  1.0000
  H   H24       1.0  0.921309049143186  0.5487064167518175  0.5736497431645986  1.0000
  H   H25       1.0  0.1266138997049383  0.31028554050415313  0.3657224500961126  1.0000
  H   H26       1.0  0.8733861009075051  0.6897144601073638  0.634277550170568  1.0000
  H   H27       1.0  0.2614428845881171  0.421565389724784  0.4946289233111171  1.0000
  H   H28       1.0  0.738557115798216  0.5784346098878372  0.5053710769526025  1.0000
  H   H29       1.0  0.27946852710978737  0.23069882148878657  0.5996408448318513  1.0000
  H   H30       1.0  0.7205314732765457  0.7693011781238348  0.4003591554318683  1.0000
  H   H31       1.0  0.1633255226068226  0.11986114674945389  0.46666232087405096  1.0000
  H   H32       1.0  0.8366744777795104  0.8801388528631674  0.5333376793896687  1.0000
  H   H33       1.0  0.1072814462837172  0.10551756797318804  0.5815633770342524  1.0000
  H   H34       1.0  0.892718552615637  0.8944824314152523  0.41843662239228574  1.0000
  H   H35       1.0  0.8475498227088673  0.15377658141047668  0.48935309899165935  1.0000
  H   H36       1.0  0.1524501764165972  0.8462234189768593  0.5106469004378397  1.0000
  H   H37       1.0  0.8825792078670276  0.14900981673043534  0.36502545519125007  1.0000
  H   H38       1.0  0.1174207917080872  0.8509901838799978  0.6349745450738322  1.0000
  H   H39       1.0  0.8385195600398235  0.2947060428842192  0.4213228724599173  1.0000
  H   H40       1.0  0.16148044057261984  0.7052939577272977  0.5786771278067633  1.0000
  H   H41       1.0  0.5034452581483048  0.48086615530264337  0.2562641123636872  1.0000
  H   H42       1.0  0.4965547417883779  0.5191338440868808  0.7437358870644492  1.0000
  H   H43       1.0  0.2935438368381005  0.674646572159115  0.42914169507732963  1.0000
  H   H44       1.0  0.706456163774343  0.3253534284524019  0.570858305189351  1.0000
  H   H45       1.0  0.47465331115482573  0.7659556008714191  0.4306382752102982  1.0000
  H   H46       1.0  0.5253466884202891  0.2340443997390141  0.5693617250547841  1.0000
  H   H47       1.0  0.4687712904809633  0.6378511163238014  0.5077877279988776  1.0000
  H   H48       1.0  0.5312287090941515  0.3621488842866317  0.49221227226620473  1.0000
  H   H49       1.0  0.9655460643592935  0.1168970855157808  0.10111310602170605  1.0000
  H   H50       1.0  0.034453935215821144  0.8831029150946523  0.8988868942433762  1.0000
  B   B1        1.0  0.3758854626614238  0.2738085784855154  0.10027209999357835  1.0000
  B   B2        1.0  0.6241145362379303  0.7261914209029251  0.8997278994329597  1.0000
  C   C1        1.0  0.19802979724463435  0.1320438503259085  0.18122812166925575  1.0000
  C   C2        1.0  0.801970203367809  0.8679561502856086  0.8187718785974248  1.0000
  C   C3        1.0  0.3471008767638064  0.18728440819055833  0.18699211655085626  1.0000
  C   C4        1.0  0.6528991238486369  0.8127155924209587  0.8130078837158243  1.0000
  C   C5        1.0  0.468121561757948  0.15489914087257609  0.2668250571322635  1.0000
  C   C6        1.0  0.5318784381787346  0.8451008585169479  0.7331749422958728  1.0000
  C   C7        1.0  0.44148058847144706  0.0650379483599391  0.3337601433197707  1.0000
  C   C8        1.0  0.5585194108775574  0.9349620512515984  0.6662398569423506  1.0000
  C   C9        1.0  0.29051217305520644  0.006663845752908424  0.32224359504700795  1.0000
  C   C10       1.0  0.7094878273311265  0.993336153859713  0.6777564052167115  1.0000
  C   C11       1.0  0.16799766369771224  0.041218714115977335  0.2471772409873817  1.0000
  C   C12       1.0  0.8320023366886208  0.9587812854966441  0.7528227592763379  1.0000
  C   C13       1.0  0.08232971333353668  0.2544127771073366  0.04057312858486546  1.0000
  C   C14       1.0  0.9176702872789068  0.7455872235041803  0.9594268716818152  1.0000
  C   C15       1.0  0.3128113272885941  0.08805071430913664  0.9354560940596821  1.0000
  C   C16       1.0  0.6871886730977389  0.9119492853034847  0.06454390620403737  1.0000
  C   C17       1.0  0.3694445461682605  0.02944074393053533  0.8521407697256008  1.0000
  C   C18       1.0  0.6305554529572039  0.9705592564568005  0.14785922970389814  1.0000
  C   C19       1.0  0.9477427949225671  0.28987787441720164  0.9747290325094106  1.0000
  C   C20       1.0  0.05225720442643736  0.7101221251943359  0.025270967752710746  1.0000
  C   C21       1.0  0.9558130067308217  0.36486871442335583  0.8976134490458055  1.0000
  C   C22       1.0  0.04418699365551118  0.6351312851892655  0.10238655121791405  1.0000
  C   C23       1.0  0.22559989234512864  0.3819534553131101  0.9503911750866242  1.0000
  C   C24       1.0  0.7744001082673149  0.6180465452984069  0.04960882518005634  1.0000
  C   C25       1.0  0.0892390966156524  0.4606407195854981  0.7859980522092186  1.0000
  C   C26       1.0  0.9107609033210303  0.539359279804026  0.21400194721891774  1.0000
  C   C27       1.0  0.05773155896116043  0.3396362782107594  0.691853083908541  1.0000
  C   C28       1.0  0.9422684416512829  0.6603637224007576  0.30814691635813973  1.0000
  C   C29       1.0  0.07098170193219137  0.2816493716417507  0.5083935225519631  1.0000
  C   C30       1.0  0.9290182986802519  0.7183506289697662  0.4916064777147173  1.0000
  C   C31       1.0  0.1387642033707318  0.37216603319340974  0.44468411739817687  1.0000
  C   C32       1.0  0.8612357972417115  0.6278339674181073  0.5553158828685038  1.0000
  C   C33       1.0  0.16046284008251233  0.17728396731808857  0.5421398267061225  1.0000
  C   C34       1.0  0.8395371594926024  0.8227160332923446  0.4578601735589599  1.0000
  C   C35       1.0  0.8986650234807518  0.21612009484075917  0.44291673919969243  1.0000
  C   C36       1.0  0.10133497586825253  0.7838799047707784  0.5570832610624288  1.0000
  C   C37       1.0  0.384202539323686  0.5619061607053527  0.3299639617267836  1.0000
  C   C38       1.0  0.6157974610626471  0.4380938389072686  0.6700360385369359  1.0000
  C   C39       1.0  0.40494779727469765  0.6658940617013138  0.4301598070375043  1.0000
  C   C40       1.0  0.5950522028880952  0.33410593868710586  0.569840192393593  1.0000
  N   N1        1.0  0.07413091271769201  0.1695755968782612  0.10863627058120334  1.0000
  N   N2        1.0  0.925869086181662  0.8304244025101792  0.8913637288453348  1.0000
  N   N3        1.0  0.21830524232655535  0.30893612564192646  0.03121588030369705  1.0000
  N   N4        1.0  0.7816947580597776  0.6910638739706949  0.9687841199600224  1.0000
  N   N5        1.0  0.09072131765260628  0.40986593635940555  0.8849561968942794  1.0000
  N   N6        1.0  0.909278682959837  0.5901340642521115  0.11504380337240115  1.0000
  O   O1        1.0  0.5034738347455551  0.3957085604863121  0.1565194612981877  1.0000
  O   O2        1.0  0.49652616564077795  0.6042914391263092  0.8434805389655319  1.0000
  O   O3        1.0  0.4168488358770418  0.1917300730734161  0.014692727637137555  1.0000
  O   O4        1.0  0.5831511642857513  0.8082699273150036  0.9853072717939598  1.0000
  O   O5        1.0  0.1792220146553017  0.043417547071309334  0.928706580094771  1.0000
  O   O6        1.0  0.8207779859571416  0.9565824535402075  0.0712934201719095  1.0000
  O   O7        1.0  0.3450955925025862  0.4188768464958791  0.9342097134530387  1.0000
  O   O8        1.0  0.6549044068464183  0.5811231531156585  0.06579028680908264  1.0000
  O   O9        1.0  0.0030804201317818857  0.22123253445709715  0.6935588049223753  1.0000
  O   O10       1.0  0.9969195804806615  0.7787674661544198  0.3064411953443052  1.0000
  O   O11       1.0  0.09429781276414732  0.38309999970163294  0.6105386878762308  1.0000
  O   O12       1.0  0.9057021876221856  0.6168999999109883  0.3894613123874887  1.0000
  O   O13       1.0  0.25716528642983927  0.4997102278647328  0.25497982410287934  1.0000
  O   O14       1.0  0.7428347135068434  0.5002897715247913  0.7450201753252571  1.0000
  O   O15       1.0  0.5167501663177317  0.5450880635348644  0.33027478742523636  1.0000
  O   O16       1.0  0.4832498338450613  0.4549119368535554  0.669725212005861  1.0000
  Br  Br1       1.0  0.7588179865542998  0.23937712871925498  0.9924786287542035  1.0000
  Br  Br2       1.0  0.24118201302081518  0.7606228718911783  0.007521371510878936  1.0000
