data_image0
_chemical_formula_structural       H24C24O16Br4
_chemical_formula_sum              "H24 C24 O16 Br4"
_cell_length_a       6.813959573969483
_cell_length_b       14.612443711455922
_cell_length_c       7.752929548845434
_cell_angle_alpha    90.0
_cell_angle_beta     110.72419766002679
_cell_angle_gamma    90.0

_space_group_name_H-M_alt    "P 1"
_space_group_IT_number       1

loop_
  _space_group_symop_operation_xyz
  'x, y, z'

loop_
  _atom_site_type_symbol
  _atom_site_label
  _atom_site_symmetry_multiplicity
  _atom_site_fract_x
  _atom_site_fract_y
  _atom_site_fract_z
  _atom_site_occupancy
  H   H1        1.0  0.6617711719724095  0.8862652267975557  0.3913158160997634  1.0000
  H   H2        1.0  0.8382288279432001  0.38626522650519945  0.10868418331693624  1.0000
  H   H3        1.0  0.3382288276569438  0.11373477310280847  0.608684183203278  1.0000
  H   H4        1.0  0.1617711716861532  0.6137347733951646  0.8913158159861051  1.0000
  H   H5        1.0  0.8011745355393277  0.7561971350033029  0.5280619973007638  1.0000
  H   H6        1.0  0.6988254644600193  0.2561971347109468  0.9719380030328664  1.0000
  H   H7        1.0  0.1988254646453425  0.24380286558140943  0.47193800338134567  1.0000
  H   H8        1.0  0.3011745351693342  0.7438028651894174  0.028061996270174985  1.0000
  H   H9        1.0  0.5579925488659183  0.7605750153403096  0.4831089454644947  1.0000
  H   H10       1.0  0.9420074516050081  0.2605750157323017  0.016891055331273018  1.0000
  H   H11       1.0  0.44200745131875185  0.23942498456005448  0.5168910552176148  1.0000
  H   H12       1.0  0.05799254857966205  0.7394249841680625  0.9831089453508365  1.0000
  H   H13       1.0  0.7838740101901471  0.8168976877318394  0.7604761906295584  1.0000
  H   H14       1.0  0.7161259898091997  0.3168976874394831  0.7395238097040718  1.0000
  H   H15       1.0  0.21612598999452304  0.18310231216852485  0.23952381005255108  1.0000
  H   H16       1.0  0.28387400982015365  0.6831023124608809  0.2604761895989696  1.0000
  H   H17       1.0  0.07591207304884974  0.8756237083034183  0.23348180450378034  1.0000
  H   H18       1.0  0.4240879267658269  0.3756237086954103  0.26651819514774033  1.0000
  H   H19       1.0  0.9240879265805036  0.12437629159694588  0.7665181947992611  1.0000
  H   H20       1.0  0.5759120728635264  0.6243762912049539  0.7334818041553011  1.0000
  H   H21       1.0  0.7960678086165869  0.9684551591398399  0.6704114244349585  1.0000
  H   H22       1.0  0.7039321908274433  0.46845515953183203  0.8295885745196037  1.0000
  H   H23       1.0  0.20393219101276652  0.031544840760524176  0.32958857486808285  1.0000
  H   H24       1.0  0.29606780880191014  0.5315448403685321  0.17041142478343785  1.0000
  C   C1        1.0  0.6012207854960258  0.06812953121725378  0.13858518728466668  1.0000
  C   C2        1.0  0.8987792144195839  0.5681295308252617  0.36141481213203297  1.0000
  C   C3        1.0  0.3987792141333276  0.9318704686831103  0.8614148120183748  1.0000
  C   C4        1.0  0.10122078667732302  0.43187046907510235  0.638585187170954  1.0000
  C   C5        1.0  0.5957187228676859  0.9790773324781922  0.19176337409016855  1.0000
  C   C6        1.0  0.9042812776032406  0.47907733218583604  0.3082366267055992  1.0000
  C   C7        1.0  0.40428127731698416  0.020922668106520163  0.8082366265919408  1.0000
  C   C8        1.0  0.09571872258142963  0.5209226677145281  0.6917633739765102  1.0000
  C   C9        1.0  0.49002421106833327  0.9060990920786095  0.051688543039969954  1.0000
  C   C10       1.0  0.009975788746343316  0.40609909178625336  0.4483114566115507  1.0000
  C   C11       1.0  0.5099757885610201  0.09390090782175457  0.9483114562630715  1.0000
  C   C12       1.0  0.99002421088301  0.5939009081141108  0.5516885426914906  1.0000
  C   C13       1.0  0.8848320968794368  0.9815775207233218  0.8151410535458199  1.0000
  C   C14       1.0  0.6151679040321468  0.4815775211153138  0.6848589454086879  1.0000
  C   C15       1.0  0.11516790274991662  0.018422479177042338  0.18485894575722153  1.0000
  C   C16       1.0  0.38483209706476007  0.5184224787850503  0.31514105389429914  1.0000
  C   C17       1.0  0.9273530683554858  0.9109154685444313  0.9450038779384143  1.0000
  C   C18       1.0  0.572646931643861  0.41091546825207503  0.5549961223952159  1.0000
  C   C19       1.0  0.07264693182918432  0.08908453204028115  0.054996122743695176  1.0000
  C   C20       1.0  0.4273530685408092  0.589084531648289  0.44500387828689364  1.0000
  C   C21       1.0  0.04288115109598139  0.9299466357804754  0.1304575692288888  1.0000
  C   C22       1.0  0.4571188487186953  0.42994663548811923  0.36954243042263196  1.0000
  C   C23       1.0  0.9571188490886887  0.07005336411988872  0.8695424314532207  1.0000
  C   C24       1.0  0.542881150910658  0.5700533644122449  0.6304575688804095  1.0000
  O   O1        1.0  0.6774748794032226  0.9540871510129446  0.36516364052297995  1.0000
  O   O2        1.0  0.8225251196001504  0.4540871507205884  0.13483636027284215  1.0000
  O   O3        1.0  0.32252512078144757  0.045912848887419554  0.6348363601591295  1.0000
  O   O4        1.0  0.17747488058451982  0.5459128491797757  0.8651636404092673  1.0000
  O   O5        1.0  0.4896187412276376  0.8271621570404473  0.1125940849510356  1.0000
  O   O6        1.0  0.010381258587039085  0.327162156748091  0.38740591470048513  1.0000
  O   O7        1.0  0.5103812584017158  0.1728378428599169  0.8874059143520059  1.0000
  O   O8        1.0  0.9896187415976312  0.672837843152273  0.6125940859816243  1.0000
  O   O9        1.0  0.6875421180172385  0.7986838485372805  0.5303271729676634  1.0000
  O   O10       1.0  0.8124578819821084  0.2986838489292726  0.9696728273659668  1.0000
  O   O11       1.0  0.31245788161211485  0.2013161513630836  0.469672826335378  1.0000
  O   O12       1.0  0.1875421182025618  0.7013161509710916  0.03032717331614274  1.0000
  O   O13       1.0  0.8595344242323409  0.8224813307973748  0.8974257161885874  1.0000
  O   O14       1.0  0.6404655757670059  0.32248133118936695  0.6025742841450427  1.0000
  O   O15       1.0  0.14046557539701235  0.17751866910298925  0.10257428311445392  1.0000
  O   O16       1.0  0.3595344244176643  0.6775186693953454  0.3974257165370668  1.0000
  Br  Br1       1.0  0.7260139753112702  0.1599851001080143  0.31325240343919186  1.0000
  Br  Br2       1.0  0.7739860246043394  0.6599850997160223  0.18674759597750779  1.0000
  Br  Br3       1.0  0.27398602431808317  0.8400148997923498  0.6867475958638496  1.0000
  Br  Br4       1.0  0.2260139750250139  0.3400149001843419  0.8132524033255336  1.0000
