data_image0
_chemical_formula_structural       H90C104O20P6Cl2Br2
_chemical_formula_sum              "H90 C104 O20 P6 Cl2 Br2"
_cell_length_a       7.098314754028436
_cell_length_b       17.77743078885632
_cell_length_c       18.191448750777244
_cell_angle_alpha    95.23677758836503
_cell_angle_beta     92.29835302259386
_cell_angle_gamma    102.22755331531118

_space_group_name_H-M_alt    "P 1"
_space_group_IT_number       1

loop_
  _space_group_symop_operation_xyz
  'x, y, z'

loop_
  _atom_site_type_symbol
  _atom_site_label
  _atom_site_symmetry_multiplicity
  _atom_site_fract_x
  _atom_site_fract_y
  _atom_site_fract_z
  _atom_site_occupancy
  H   H1        1.0  0.01019198230801931  0.6031898522618324  0.8163457474411902  1.0000
  H   H2        1.0  0.9898080176290263  0.3968101478605363  0.18365425231645036  1.0000
  H   H3        1.0  0.9725694113458606  0.5619828516259967  0.5422161737684484  1.0000
  H   H4        1.0  0.027430588591184864  0.4380171484963719  0.45778382598919204  1.0000
  H   H5        1.0  0.10218430326282239  0.691522436245384  0.6041738143425541  1.0000
  H   H6        1.0  0.8978156978893895  0.3084775633702773  0.3958261859700641  1.0000
  H   H7        1.0  0.08263969987046257  0.7976191627979816  0.6723769778995959  1.0000
  H   H8        1.0  0.9173602997832567  0.20238083674894664  0.3276230218585905  1.0000
  H   H9        1.0  0.3220822501949603  0.7825237385091413  0.6871123527352754  1.0000
  H   H10       1.0  0.6779177497420852  0.21747626161322733  0.31288764702236505  1.0000
  H   H11       1.0  0.22371625939995193  0.8414570343850322  0.754725412494005  1.0000
  H   H12       1.0  0.7762837402537673  0.15854296516189603  0.24527458726418133  1.0000
  H   H13       1.0  0.12579815350135726  0.11266911520621674  0.3064310481531664  1.0000
  H   H14       1.0  0.8742018462372864  0.8873308844003682  0.693568952158063  1.0000
  H   H15       1.0  0.16375970814161844  0.15400452256813146  0.3983399242995846  1.0000
  H   H16       1.0  0.8362402932089953  0.8459954775633136  0.6016600754594447  1.0000
  H   H17       1.0  0.1911920298196792  0.036458134426428  0.2326540660927326  1.0000
  H   H18       1.0  0.8088079702022906  0.9635418657555973  0.7673459342179509  1.0000
  H   H19       1.0  0.32462920691535285  0.9653801462375985  0.21470085240084588  1.0000
  H   H20       1.0  0.6753707927383665  0.034619853309329804  0.7852991473573405  1.0000
  H   H21       1.0  0.1266510434160804  0.13272226640444756  0.20517083087741525  1.0000
  H   H22       1.0  0.8733489565209651  0.867277733717921  0.7948291688802253  1.0000
  H   H23       1.0  0.16348825557123742  0.2028710321873268  0.14298880583306878  1.0000
  H   H24       1.0  0.8365117443658081  0.7971289679350417  0.8570111939245717  1.0000
  H   H25       1.0  0.44374565317712183  0.41791322927981606  0.46941220880695045  1.0000
  H   H26       1.0  0.5562543481734921  0.5820867708516291  0.5305877909520789  1.0000
  H   H27       1.0  0.49144936505222425  0.4843526018270236  0.40189719619981895  1.0000
  H   H28       1.0  0.5085506348848213  0.515647398295345  0.5981028035578215  1.0000
  H   H29       1.0  0.6751061210978752  0.4392129237167752  0.43370799423162804  1.0000
  H   H30       1.0  0.32489387855584406  0.560787075830153  0.5662920055265583  1.0000
  H   H31       1.0  0.6892143991544556  0.8472426583732046  0.08598034526180062  1.0000
  H   H32       1.0  0.3107856007825899  0.15275734174916397  0.9140196544958398  1.0000
  H   H33       1.0  0.46005421795080703  0.4972335561143643  0.2750798753203158  1.0000
  H   H34       1.0  0.5399457820711628  0.5027664440676611  0.7249201249903677  1.0000
  H   H35       1.0  0.5807143358478284  0.45531653061863264  0.20397227213240382  1.0000
  H   H36       1.0  0.41928566408921714  0.544683469503736  0.7960277276252368  1.0000
  H   H37       1.0  0.6931027180967742  0.48113870612507975  0.29417955780695243  1.0000
  H   H38       1.0  0.30689728192519566  0.5188612940569456  0.7058204425037311  1.0000
  H   H39       1.0  0.9712051445911004  0.004029833180578643  0.39608582397191094  1.0000
  H   H40       1.0  0.028794855345944906  0.9959701669417899  0.6039141757857295  1.0000
  H   H41       1.0  0.7966196598897691  0.9154726345300843  0.38295031772773397  1.0000
  H   H42       1.0  0.2033803401322007  0.08452736565194102  0.6170496825829496  1.0000
  H   H43       1.0  0.8488880551747949  0.9658429258077563  0.4720886752671325  1.0000
  H   H44       1.0  0.1511119447622506  0.0341570743146122  0.527911324490508  1.0000
  H   H45       1.0  0.11508813441035719  0.3638744950132003  0.07194974162798423  1.0000
  H   H46       1.0  0.8849118655266882  0.6361255051091682  0.9280502581296562  1.0000
  H   H47       1.0  0.029204197009455476  0.9056910069925244  0.293826957297106  1.0000
  H   H48       1.0  0.9707958030125143  0.09430899318950105  0.7061730430135776  1.0000
  H   H49       1.0  0.7633005555291286  0.9727355123334471  0.021286936182855324  1.0000
  H   H50       1.0  0.236699444407917  0.027264487788921415  0.9787130635747852  1.0000
  H   H51       1.0  0.9450983571814076  0.0501381056053842  0.06394253095822054  1.0000
  H   H52       1.0  0.05490164275563807  0.9498618945169846  0.93605746879942  1.0000
  H   H53       1.0  0.8387594269662432  0.05699293395400509  0.9757173940316198  1.0000
  H   H54       1.0  0.16124057410104442  0.9430070656019997  0.024282605727955375  1.0000
  H   H55       1.0  0.6503344592234998  0.38565909701405776  0.9628415751223427  1.0000
  H   H56       1.0  0.34966554079847  0.6143409031679675  0.037158425188340706  1.0000
  H   H57       1.0  0.844881618514395  0.7366875405297042  0.0577899386596747  1.0000
  H   H58       1.0  0.1551183814226505  0.26331245959266436  0.9422100610979657  1.0000
  H   H59       1.0  0.7725902199626106  0.038375217341319  0.5474261338892022  1.0000
  H   H60       1.0  0.22740978005935936  0.9616247828407064  0.45257386642148134  1.0000
  H   H61       1.0  0.6374663608152937  0.10958480729603987  0.5678628541174301  1.0000
  H   H62       1.0  0.3625336391217517  0.8904151928263287  0.4321371456402104  1.0000
  H   H63       1.0  0.8623816861596892  0.13506538374115176  0.5274050764212792  1.0000
  H   H64       1.0  0.13761831386228066  0.8649346164408737  0.4725949238894044  1.0000
  H   H65       1.0  0.09459861946801044  0.7111857058495541  0.1456735314316495  1.0000
  H   H66       1.0  0.9054013805539595  0.28881429433247136  0.8543264688790342  1.0000
  H   H67       1.0  0.18550636968147988  0.7955689602731151  0.26448831964145025  1.0000
  H   H68       1.0  0.8144936302555658  0.2044310398492535  0.7355116801161903  1.0000
  H   H69       1.0  0.8486387858470877  0.2072432143323107  0.9968753902007159  1.0000
  H   H70       1.0  0.15136121380663156  0.7927567852146176  0.003124609557470614  1.0000
  H   H71       1.0  0.6222392305496715  0.22022749694745763  0.9628959457938644  1.0000
  H   H72       1.0  0.37776076947229836  0.7797725032345677  0.03710405451681929  1.0000
  H   H73       1.0  0.7023513149251659  0.13520299529085328  0.9330555184292041  1.0000
  H   H74       1.0  0.29764868501187963  0.8647970048315154  0.06694448132843643  1.0000
  H   H75       1.0  0.5221243525953131  0.45731856218448297  0.8677558473699495  1.0000
  H   H76       1.0  0.4778756473417324  0.5426814379378855  0.13224415238769105  1.0000
  H   H77       1.0  0.9882807939599036  0.43541072995190855  0.9773889604509398  1.0000
  H   H78       1.0  0.011719206062066225  0.5645892702301167  0.022611039859743876  1.0000
  H   H79       1.0  0.19187736094797953  0.4834029585932784  0.876360531190809  1.0000
  H   H80       1.0  0.8081226390739904  0.516597041588747  0.12363946911987461  1.0000
  H   H81       1.0  0.29359769117083095  0.3343307237251865  0.7894523423941507  1.0000
  H   H82       1.0  0.7064023087662146  0.6656692763971821  0.2105476573634897  1.0000
  H   H83       1.0  0.6273238025303932  0.21807833054009457  0.6434535190589156  1.0000
  H   H84       1.0  0.372676197123326  0.7819216690068336  0.3565464806992708  1.0000
  H   H85       1.0  0.5412308031043048  0.25582173502723643  0.7712024018350685  1.0000
  H   H86       1.0  0.45876919663433874  0.7441782645793485  0.22879759847616096  1.0000
  H   H87       1.0  0.19459864165181964  0.32820438353755094  0.5538720348184237  1.0000
  H   H88       1.0  0.8054013583701501  0.6717956166444743  0.44612796549225986  1.0000
  H   H89       1.0  0.11620245580352506  0.3682188002117157  0.6811894846273252  1.0000
  H   H90       1.0  0.8837975441335204  0.6317811999106528  0.3188105151303154  1.0000
  C   C1        1.0  0.9278271310262302  0.520200707842768  0.7196978357156908  1.0000
  C   C2        1.0  0.072172870409308  0.47979929234833385  0.2803021645963815  1.0000
  C   C3        1.0  0.917232398344305  0.5075180089036834  0.6422285726372314  1.0000
  C   C4        1.0  0.08276760159274052  0.49248199121868536  0.3577714271204092  1.0000
  C   C5        1.0  0.05592855058641133  0.6565232524841843  0.7152046209764137  1.0000
  C   C6        1.0  0.944071449350634  0.3434767476381843  0.28479537878122685  1.0000
  C   C7        1.0  0.9956721430698471  0.5935869806729313  0.7563161199517868  1.0000
  C   C8        1.0  0.0043278569521228195  0.40641301950909403  0.2436838803588967  1.0000
  C   C9        1.0  0.9785175332224775  0.5708702451403106  0.6023733265060531  1.0000
  C   C10       1.0  0.021482466714568108  0.42912975498205813  0.3976266732515873  1.0000
  C   C11       1.0  0.049014225648396706  0.6448594003239027  0.6377677813979411  1.0000
  C   C12       1.0  0.950985774373573  0.3551405998581227  0.36223221891274243  1.0000
  C   C13       1.0  0.19139917728687625  0.7904620826474035  0.7143622738188253  1.0000
  C   C14       1.0  0.8086008226501693  0.20953791747496514  0.2856377259388152  1.0000
  C   C15       1.0  0.4373856463987381  0.04582868449481359  0.3077464526222258  1.0000
  C   C16       1.0  0.5626143536232316  0.9541713156872117  0.6922535476884578  1.0000
  C   C17       1.0  0.3885429383618195  0.09965766281362048  0.36175663400963787  1.0000
  C   C18       1.0  0.611457061376824  0.9003423367929645  0.6382433663015916  1.0000
  C   C19       1.0  0.4336433024854613  0.06999209992666418  0.16811260520728652  1.0000
  C   C20       1.0  0.5663566974515842  0.9300079001957045  0.831887394550354  1.0000
  C   C21       1.0  0.3840681367973727  0.13787514927031916  0.1460900471424222  1.0000
  C   C22       1.0  0.6159318631396729  0.8621248508520495  0.8539099526152184  1.0000
  C   C23       1.0  0.37812809161619193  0.28973638778875394  0.3749739774616629  1.0000
  C   C24       1.0  0.6218719081224516  0.7102636118178309  0.6250260228495665  1.0000
  C   C25       1.0  0.3148161565094662  0.22577000815324888  0.3219753354781286  1.0000
  C   C26       1.0  0.6851838448411475  0.7742299919781961  0.6780246642809006  1.0000
  C   C27       1.0  0.2368488050375745  0.14622689579240464  0.34698055584300985  1.0000
  C   C28       1.0  0.763151194899471  0.8537731043299639  0.6530194439146306  1.0000
  C   C29       1.0  0.5663127748540848  0.0389131387622975  0.12644655798857998  1.0000
  C   C30       1.0  0.4336872251678851  0.961086861419728  0.8735534423221036  1.0000
  C   C31       1.0  0.4825966314975912  0.1084161658092177  0.43242853887274846  1.0000
  C   C32       1.0  0.5174033684394543  0.8915838343131509  0.5675714608848921  1.0000
  C   C33       1.0  0.5755633742916163  0.005018032168375056  0.329435663825475  1.0000
  C   C34       1.0  0.4244366257303535  0.9949819680136502  0.6705643364852085  1.0000
  C   C35       1.0  0.3204390334104686  0.23944010028488696  0.2468072583242229  1.0000
  C   C36       1.0  0.6795609666115013  0.7605598998971385  0.7531927419864608  1.0000
  C   C37       1.0  0.3386494766309308  0.027486687646032845  0.2304386659652408  1.0000
  C   C38       1.0  0.6613505233061147  0.9725133124763358  0.7695613337923997  1.0000
  C   C39       1.0  0.4564212128742824  0.3649297388128024  0.3589221588404258  1.0000
  C   C40       1.0  0.5435787870627632  0.6350702613095662  0.6410778409172149  1.0000
  C   C41       1.0  0.23821520869554144  0.1766761733603661  0.18451479801908977  1.0000
  C   C42       1.0  0.7617847910431023  0.8233238262462189  0.8154852022921397  1.0000
  C   C43       1.0  0.4694126294647561  0.37787674401597016  0.28409314687447595  1.0000
  C   C44       1.0  0.5305873719707821  0.6221232561751316  0.7159068534375964  1.0000
  C   C45       1.0  0.47004045351873197  0.1684371517616121  0.08401306224038393  1.0000
  C   C46       1.0  0.5299595465032378  0.8315628484204133  0.9159869380702997  1.0000
  C   C47       1.0  0.8472371052710627  0.8829108466775207  0.19207099581493844  1.0000
  C   C48       1.0  0.1527628946659829  0.11708915344484785  0.8079290039427021  1.0000
  C   C49       1.0  0.39459985006388426  0.31557146992200796  0.23097412638597753  1.0000
  C   C50       1.0  0.6054001499580856  0.6844285302600174  0.769025873924706  1.0000
  C   C51       1.0  0.658172160229944  0.07142323466022708  0.0666577890099698  1.0000
  C   C52       1.0  0.34182783970710146  0.9285767654621415  0.9333422107476707  1.0000
  C   C53       1.0  0.6772366422229611  0.017156309256177837  0.3985507224157649  1.0000
  C   C54       1.0  0.3227633577140845  0.9828436908661908  0.6014492773418756  1.0000
  C   C55       1.0  0.6297094519002292  0.07116767683754738  0.4521206929988471  1.0000
  C   C56       1.0  0.37029054775349013  0.9288323227093809  0.5478793067593392  1.0000
  C   C57       1.0  0.5194118501730253  0.43004311217772356  0.4191540404321926  1.0000
  C   C58       1.0  0.4805881497640203  0.5699568879446452  0.5808459593254479  1.0000
  C   C59       1.0  0.6070275668845295  0.13839437026868517  0.044244044849595605  1.0000
  C   C60       1.0  0.39297243446608426  0.8616056298627599  0.9557559549094337  1.0000
  C   C61       1.0  0.39119934379089477  0.3704935371718869  0.0228387455620738  1.0000
  C   C62       1.0  0.6088006561461509  0.6295064629504817  0.9771612541955667  1.0000
  C   C63       1.0  0.4165414350524994  0.27072564092966683  0.5909321498100855  1.0000
  C   C64       1.0  0.5834585648845462  0.7292743591927019  0.4090678499475551  1.0000
  C   C65       1.0  0.7964143897900762  0.8355428159595062  0.1253022719425596  1.0000
  C   C66       1.0  0.20358561014696927  0.1644571841628624  0.8746977278150808  1.0000
  C   C67       1.0  0.5550792834908038  0.45685602371940087  0.26286587369674047  1.0000
  C   C68       1.0  0.44492071616291545  0.5431439758275274  0.737134126061446  1.0000
  C   C69       1.0  0.8310473083998645  0.9732047787286915  0.41340161711802914  1.0000
  C   C70       1.0  0.1689526926674229  0.026795220827313043  0.586598382641546  1.0000
  C   C71       1.0  0.20427688646021042  0.38428031707114424  0.02737825319371111  1.0000
  C   C72       1.0  0.7957231135617594  0.615719683110881  0.9726217471169724  1.0000
  C   C73       1.0  0.9879724323288012  0.868422922093623  0.24223051078407803  1.0000
  C   C74       1.0  0.0120275676082443  0.13157707802874558  0.7577694889735624  1.0000
  C   C75       1.0  0.808437438914291  0.035967615137930405  0.029626395362396397  1.0000
  C   C76       1.0  0.19156256102275457  0.9640323849844382  0.970373604395244  1.0000
  C   C77       1.0  0.5046286836150022  0.39619215891911963  0.9649101964580339  1.0000
  C   C78       1.0  0.49537131640696763  0.6038078412629058  0.03508980385264972  1.0000
  C   C79       1.0  0.8854646058079987  0.7737771515940781  0.10931347405421901  1.0000
  C   C80       1.0  0.1145353941290469  0.22622284852829047  0.8906865257034214  1.0000
  C   C81       1.0  0.731012929016611  0.08927903395931709  0.5277534516616847  1.0000
  C   C82       1.0  0.26898707092043445  0.9107209661630515  0.4722465480959557  1.0000
  C   C83       1.0  0.025842719324108396  0.7596766971006049  0.158967620721552  1.0000
  C   C84       1.0  0.9741572806129369  0.24032330302176372  0.8410323790360885  1.0000
  C   C85       1.0  0.07701471755019708  0.8068594900515996  0.22545272814293585  1.0000
  C   C86       1.0  0.9229852821035222  0.19314050949532863  0.7745472716152505  1.0000
  C   C87       1.0  0.6989151507775472  0.17716585452026692  0.9807927296628224  1.0000
  C   C88       1.0  0.3010848491594984  0.8228341456021017  0.01920727009481813  1.0000
  C   C89       1.0  0.4325348596366549  0.43635575065846394  0.9120272364037953  1.0000
  C   C90       1.0  0.5674651403003906  0.5636442494639047  0.0879727633538452  1.0000
  C   C91       1.0  0.13304288980966672  0.4242716968000248  0.9739434175547054  1.0000
  C   C92       1.0  0.8669571102123033  0.5757283033820005  0.026056582755978122  1.0000
  C   C93       1.0  0.24728794063897752  0.45077140672443705  0.9168743593579983  1.0000
  C   C94       1.0  0.752712059298068  0.5492285933979316  0.08312564039964215  1.0000
  C   C95       1.0  0.3270814227607313  0.3159066107854916  0.7336937866549139  1.0000
  C   C96       1.0  0.6729185772612385  0.6840933893965337  0.2663062136557697  1.0000
  C   C97       1.0  0.513765989885459  0.2501805024514949  0.6521804245772577  1.0000
  C   C98       1.0  0.4862340101365109  0.7498194977305305  0.347819575733426  1.0000
  C   C99       1.0  0.46765319841046005  0.27226485779042076  0.7234126141956305  1.0000
  C   C100      1.0  0.5323468012432592  0.7277351417565074  0.2765873855625559  1.0000
  C   C101      1.0  0.2719488508483877  0.31297957427402245  0.6012841761294725  1.0000
  C   C102      1.0  0.7280511488053315  0.6870204252729057  0.39871582362871394  1.0000
  C   C103      1.0  0.22854721007611695  0.3355510042858028  0.6729096235641852  1.0000
  C   C104      1.0  0.7714527899458529  0.6644489958962225  0.3270903767464985  1.0000
  O   O1        1.0  0.11894131448341395  0.7262720861016999  0.7551352154743378  1.0000
  O   O2        1.0  0.8810586854536315  0.27372791402066876  0.24486478428330263  1.0000
  O   O3        1.0  0.6089247280873916  0.9678534412733935  0.14329661670720192  1.0000
  O   O4        1.0  0.39107527193457825  0.03214655890863198  0.8567033836034817  1.0000
  O   O5        1.0  0.6127427657611998  0.9447798803152225  0.2795425117056359  1.0000
  O   O6        1.0  0.38725723417584573  0.05522011980714603  0.7204574880520046  1.0000
  O   O7        1.0  0.34977223700262094  0.2794424425408658  0.4497323577891994  1.0000
  O   O8        1.0  0.650227763019349  0.7205575576411596  0.5502676425214842  1.0000
  O   O9        1.0  0.4066209610830629  0.23087567932098724  0.05653697878482431  1.0000
  O   O10       1.0  0.5933790385706564  0.769124320225941  0.9434630209733621  1.0000
  O   O11       1.0  0.41721942568336845  0.1538326913626687  0.489200343364817  1.0000
  O   O12       1.0  0.5827805757521697  0.8461673088284332  0.5107996569472554  1.0000
  O   O13       1.0  0.8966557300219884  0.040201900422912114  0.23260200270999729  1.0000
  O   O14       1.0  0.10334426991505705  0.9597980996994564  0.7673979970476432  1.0000
  O   O15       1.0  0.3732263673981247  0.3340922008309045  0.15818740789145735  1.0000
  O   O16       1.0  0.6267736326238451  0.6659077993511209  0.8418125924192262  1.0000
  O   O17       1.0  0.7031614949858073  0.27106706289054483  0.4898117617399813  1.0000
  O   O18       1.0  0.29683850503616255  0.7289329372914806  0.5101882385707024  1.0000
  O   O19       1.0  0.7083765212179507  0.3404104246843327  0.09926176829793432  1.0000
  O   O20       1.0  0.29162347880401907  0.6595895754976926  0.9007382320127492  1.0000
  P   P1        1.0  0.7526106014141699  0.9667965440048268  0.21354675305169185  1.0000
  P   P2        1.0  0.24738939860779996  0.033203456177198554  0.7864532472589918  1.0000
  P   P3        1.0  0.4949021612465692  0.24669636759210598  0.5017306035851588  1.0000
  P   P4        1.0  0.5050978386904762  0.7533036325302626  0.4982693961724817  1.0000
  P   P5        1.0  0.4955805394370283  0.320039485561417  0.08836957238530736  1.0000
  P   P6        1.0  0.5044194602166909  0.6799605139855113  0.911630427372879  1.0000
  Cl  Cl1       1.0  0.8354111241010943  0.4170192240664479  0.594983389726187  1.0000
  Cl  Cl2       1.0  0.16458887555262502  0.5829807754804803  0.40501661003199935  1.0000
  Br  Br1       1.0  0.8519981454427066  0.43558974396298544  0.7773534510869792  1.0000
  Br  Br2       1.0  0.1480018559928316  0.5644102562281164  0.2226465492250931  1.0000
