data_image0
_chemical_formula_structural       H24C14N2O10
_chemical_formula_sum              "H24 C14 N2 O10"
_cell_length_a       6.790568502185491
_cell_length_b       8.292995333921903
_cell_length_c       8.290037207383314
_cell_angle_alpha    105.14683668809798
_cell_angle_beta     109.26472791790479
_cell_angle_gamma    100.98188902147035

_space_group_name_H-M_alt    "P 1"
_space_group_IT_number       1

loop_
  _space_group_symop_operation_xyz
  'x, y, z'

loop_
  _atom_site_type_symbol
  _atom_site_label
  _atom_site_symmetry_multiplicity
  _atom_site_fract_x
  _atom_site_fract_y
  _atom_site_fract_z
  _atom_site_occupancy
  H   H1        1.0  0.3047735583915899  0.11573591752265314  0.08671206458905016  1.0000
  H   H2        1.0  0.10320220030036574  0.9184435096234503  0.9218878515591898  1.0000
  H   H3        1.0  0.3038812921930061  0.901567003900967  0.7183753552397212  1.0000
  H   H4        1.0  0.24949727145219786  0.1042217867704564  0.7749125895753786  1.0000
  H   H5        1.0  0.6730021468637633  0.8837298606462543  0.8742969339691509  1.0000
  H   H6        1.0  0.8791789637146715  0.07529995073572246  0.044247914232532166  1.0000
  H   H7        1.0  0.6920166904104954  0.09786356010096169  0.24838556247075214  1.0000
  H   H8        1.0  0.7335465923756533  0.888954515104445  0.1883048887786898  1.0000
  H   H9        1.0  0.4203529182440328  0.04008749344857427  0.33137532662731667  1.0000
  H   H10       1.0  0.47743724246122726  0.836801554086486  0.3216539014592633  1.0000
  H   H11       1.0  0.15814021184366694  0.6463586843325393  0.9141565896302497  1.0000
  H   H12       1.0  0.42137740835554666  0.6311621656202278  0.038006266543789795  1.0000
  H   H13       1.0  0.3768030686384926  0.6920925030508942  0.8400113338453533  1.0000
  H   H14       1.0  0.529973806313411  0.19395588737781908  0.6694460537380789  1.0000
  H   H15       1.0  0.5863075530174301  0.9895053624648693  0.6434453448443993  1.0000
  H   H16       1.0  0.538951691542655  0.36648501833311364  0.9554503159850132  1.0000
  H   H17       1.0  0.8150112998227014  0.36514672501509793  0.06801477931031243  1.0000
  H   H18       1.0  0.6136989638846473  0.29963998228424304  0.15052460985572466  1.0000
  H   H19       1.0  0.9775076077478105  0.7104796378265847  0.40109733402873793  1.0000
  H   H20       1.0  0.6486593382657434  0.5215584172808204  0.6704819468803113  1.0000
  H   H21       1.0  0.718643056469508  0.2939589090552968  0.5045852232111906  1.0000
  H   H22       1.0  0.37429840681367826  0.6461300178471727  0.520892024577493  1.0000
  H   H23       1.0  0.2053161885800109  0.397988502823484  0.17683741641277906  1.0000
  H   H24       1.0  0.10719999430216104  0.3132974844363561  0.6320492406931361  1.0000
  C   C1        1.0  0.2773600371141076  0.9923151881153262  0.9813119845206171  1.0000
  C   C2        1.0  0.34207106840650203  0.0228916720486189  0.8310377065387698  1.0000
  C   C3        1.0  0.7047965371899291  0.00463438557939344  0.9853470935447854  1.0000
  C   C4        1.0  0.6443710726086175  0.9743316560196934  0.13644118698725455  1.0000
  C   C5        1.0  0.3675403496268411  0.900008121443801  0.25042522542994916  1.0000
  C   C6        1.0  0.13609379657996729  0.8176010888645814  0.2332264773238902  1.0000
  C   C7        1.0  0.33459863217607944  0.7006240036892931  0.9573132021301632  1.0000
  C   C8        1.0  0.6341299723935511  0.12464302575293104  0.7367461412835484  1.0000
  C   C9        1.0  0.8745859884363043  0.20985822670178828  0.7749594087322422  1.0000
  C   C10       1.0  0.6421555245738989  0.3002690404251862  0.028417576335046123  1.0000
  C   C11       1.0  0.7711497123289902  0.6490422771072392  0.5169030059860692  1.0000
  C   C12       1.0  0.606492262581043  0.49929635232814706  0.5240175943649337  1.0000
  C   C13       1.0  0.3765667493167748  0.5175787371072389  0.4411122800735682  1.0000
  C   C14       1.0  0.2133304117038919  0.37508650666954996  0.45622144374378704  1.0000
  N   N1        1.0  0.402025047152691  0.8884313333075942  0.0773907990862451  1.0000
  N   N2        1.0  0.5841213857698375  0.11642362637549798  0.8988776071202632  1.0000
  O   O1        1.0  0.13941272538849533  0.832849326512602  0.3927969090833133  1.0000
  O   O2        1.0  0.9741177432098156  0.750948138041475  0.08405992210431534  1.0000
  O   O3        1.0  0.8947873010224265  0.23035765620473336  0.6317008323856106  1.0000
  O   O4        1.0  0.028274729668821625  0.2474816836112439  0.924708302320427  1.0000
  O   O5        1.0  0.8691069200373209  0.6001935949731848  0.40927872049237607  1.0000
  O   O6        1.0  0.799915483975917  0.8024036698803917  0.6097288162710269  1.0000
  O   O7        1.0  0.5969431384876919  0.328112378366819  0.4272043390815344  1.0000
  O   O8        1.0  0.32366454255056626  0.507413798058958  0.2586931917842619  1.0000
  O   O9        1.0  0.2460738836178937  0.39061182906245523  0.6273257518050815  1.0000
  O   O10       1.0  0.06862751352880783  0.2589282356090101  0.3202136135945644  1.0000
