data_image0
_chemical_formula_structural       H24C26N2O6Cl2
_chemical_formula_sum              "H24 C26 N2 O6 Cl2"
_cell_length_a       3.7435491362050666
_cell_length_b       12.990071925895558
_cell_length_c       12.329273766694051
_cell_angle_alpha    90.0
_cell_angle_beta     91.98475797664783
_cell_angle_gamma    90.0

_space_group_name_H-M_alt    "P 1"
_space_group_IT_number       1

loop_
  _space_group_symop_operation_xyz
  'x, y, z'

loop_
  _atom_site_type_symbol
  _atom_site_label
  _atom_site_symmetry_multiplicity
  _atom_site_fract_x
  _atom_site_fract_y
  _atom_site_fract_z
  _atom_site_occupancy
  H   H1        1.0  0.27794234380742777  0.9693942429138515  0.08150920762269011  1.0000
  H   H2        1.0  0.7779423427829203  0.030605757402116216  0.5815092079754084  1.0000
  H   H3        1.0  0.39198623839440133  0.9114102214013553  0.8950008166320023  1.0000
  H   H4        1.0  0.891986239916901  0.08858977891461234  0.39500081708841556  1.0000
  H   H5        1.0  0.24212332990831678  0.02518143254833815  0.7361773711981432  1.0000
  H   H6        1.0  0.742123328759668  0.9748185677676295  0.2361773716555345  1.0000
  H   H7        1.0  0.8548356014602878  0.25544556095837273  0.9527370723627829  1.0000
  H   H8        1.0  0.354835602580585  0.7445544393575949  0.4527370728216287  1.0000
  H   H9        1.0  0.748471031754863  0.35024716383056775  0.6987213147264354  1.0000
  H   H10       1.0  0.24847103020401176  0.6497528357155813  0.19872131518625902  1.0000
  H   H11       1.0  0.40255504093250005  0.26645901190892524  0.5531827023191817  1.0000
  H   H12       1.0  0.9025550397838513  0.7335409884070423  0.05318270277657283  1.0000
  H   H13       1.0  0.3324149791368524  0.21547101016586814  0.3571531048335785  1.0000
  H   H14       1.0  0.8324149807834934  0.7845289901500995  0.857153105185319  1.0000
  H   H15       1.0  0.5125601859104563  0.3417042203708956  0.21403520265443218  1.0000
  H   H16       1.0  0.01256018705910496  0.6582957799450719  0.714035202197041  1.0000
  H   H17       1.0  0.783760094437213  0.5091477682133025  0.27253408660007594  1.0000
  H   H18       1.0  0.2837600955858617  0.4908522321026651  0.7725340861426847  1.0000
  H   H19       1.0  0.994487754439603  0.6222331913256712  0.4193859097738319  1.0000
  H   H20       1.0  0.4944877555882517  0.3777668089902965  0.9193859093164407  1.0000
  H   H21       1.0  0.13397969156898368  0.5554091587143078  0.5421348458401136  1.0000
  H   H22       1.0  0.633979690420335  0.44459084160165985  0.04213484629750484  1.0000
  H   H23       1.0  0.7158526171078452  0.6154755382117567  0.534869213835425  1.0000
  H   H24       1.0  0.2158526181323527  0.3845244621042109  0.0348692134827066  1.0000
  C   C1        1.0  0.06166421702268449  0.11683170029063333  0.02732517962070092  1.0000
  C   C2        1.0  0.5616642159981771  0.8831682992555157  0.5273251799734192  1.0000
  C   C3        1.0  0.21012319885872122  0.01945931103707673  0.012845056648260562  1.0000
  C   C4        1.0  0.7101232004095724  0.9805406885090723  0.5128450561884369  1.0000
  C   C5        1.0  0.27328201390808  0.9869745189356299  0.9071185912742037  1.0000
  C   C6        1.0  0.7732820126636415  0.013025480610519016  0.4071185909200309  1.0000
  C   C7        1.0  0.19045777352972032  0.04995496897183365  0.8184260204484574  1.0000
  C   C8        1.0  0.6904577723810716  0.950045031344134  0.31842602090584865  1.0000
  C   C9        1.0  0.03936817944649443  0.14698055952976338  0.83472789831199  1.0000
  C   C10       1.0  0.5393681808732043  0.8530194407862042  0.3347278979568391  1.0000
  C   C11       1.0  0.9740092215531533  0.18052565631489595  0.9399149581153925  1.0000
  C   C12       1.0  0.47400922257766065  0.8194743440010718  0.4399149577626743  1.0000
  C   C13       1.0  0.9508572273163715  0.21421477231798763  0.7397092637868322  1.0000
  C   C14       1.0  0.45085722566973035  0.78578522799798  0.2397092634350917  1.0000
  C   C15       1.0  0.4894066658939459  0.3150544895630245  0.48733788713431997  1.0000
  C   C16       1.0  0.9894066647736488  0.6849455107529432  0.9873378866754742  1.0000
  C   C17       1.0  0.4494944738471634  0.289707547538506  0.3787435582261935  1.0000
  C   C18       1.0  0.9494944727268663  0.7102924527774616  0.8787435577673478  1.0000
  C   C19       1.0  0.5512746906219982  0.3596368254656854  0.29977082178483916  1.0000
  C   C20       1.0  0.05127469186643659  0.6403631748502824  0.799770822139012  1.0000
  C   C21       1.0  0.7010779470375209  0.4532158985404632  0.33255787676937343  1.0000
  C   C22       1.0  0.20107794551502123  0.5467841017755045  0.8325578763129601  1.0000
  C   C23       1.0  0.7472844410306715  0.4770307928508865  0.4422397385668437  1.0000
  C   C24       1.0  0.2472844422751099  0.5229692074650811  0.9422397389210164  1.0000
  C   C25       1.0  0.9080005519130149  0.5735212185506339  0.48599525752581274  1.0000
  C   C26       1.0  0.40800055315745337  0.4264787817653337  0.9859952578799855  1.0000
  N   N1        1.0  0.6333848466154831  0.4073813571001584  0.5175629205403064  1.0000
  N   N2        1.0  0.13338484496884212  0.5926186424459906  0.017562920188565985  1.0000
  O   O1        1.0  0.007076829228680067  0.18820448061772008  0.6452805070001383  1.0000
  O   O2        1.0  0.5070768280800313  0.8117955196982476  0.14528050745752955  1.0000
  O   O3        1.0  0.8071756551843909  0.30370656394406476  0.7668166941232447  1.0000
  O   O4        1.0  0.30717565353774995  0.6962934356020842  0.26681669377150424  1.0000
  O   O5        1.0  0.6602089060070143  0.4334512112111973  0.6212367355939429  1.0000
  O   O6        1.0  0.16020890445616306  0.5665487883349516  0.12123673605376654  1.0000
  Cl  Cl1       1.0  0.98028425343982  0.16175201815559936  0.15695018647370254  1.0000
  Cl  Cl2       1.0  0.4802842545884686  0.8382479813905496  0.6569501860163113  1.0000
