data_image0
_chemical_formula_structural       H26C24N10O2Cl4
_chemical_formula_sum              "H26 C24 N10 O2 Cl4"
_cell_length_a       6.96819457579085
_cell_length_b       10.56788455635621
_cell_length_c       10.391599674834909
_cell_angle_alpha    96.27361032926974
_cell_angle_beta     98.62709225086536
_cell_angle_gamma    106.2899628398651

_space_group_name_H-M_alt    "P 1"
_space_group_IT_number       1

loop_
  _space_group_symop_operation_xyz
  'x, y, z'

loop_
  _atom_site_type_symbol
  _atom_site_label
  _atom_site_symmetry_multiplicity
  _atom_site_fract_x
  _atom_site_fract_y
  _atom_site_fract_z
  _atom_site_occupancy
  H   H1        1.0  0.24910601874072894  0.22938277409011315  0.3906791411912112  1.0000
  H   H2        1.0  0.7508939805186537  0.770617226354576  0.609320858783225  1.0000
  H   H3        1.0  0.3495128018063344  0.4061719698433789  0.4282561545892723  1.0000
  H   H4        1.0  0.6504871974530482  0.5938280306013102  0.5717438453851638  1.0000
  H   H5        1.0  0.8954321083011471  0.05348522916595916  0.650208985440978  1.0000
  H   H6        1.0  0.10456789238444303  0.9465147712703651  0.3497910145113388  1.0000
  H   H7        1.0  0.6520905125669583  0.9773855587332324  0.5534329562502829  1.0000
  H   H8        1.0  0.3479094866924244  0.022614441711456802  0.4465670437241532  1.0000
  H   H9        1.0  0.585985164786383  0.35902030611521984  0.9837587536524455  1.0000
  H   H10       1.0  0.4140148344729996  0.6409796943294693  0.01624124632199061  1.0000
  H   H11       1.0  0.5853068485974455  0.46421653359426823  0.7812847310363008  1.0000
  H   H12       1.0  0.41469315023243297  0.5357834658630636  0.21871526892836587  1.0000
  H   H13       1.0  0.25694781571217806  0.43909723052175814  0.6320894127712655  1.0000
  H   H14       1.0  0.7430521831177004  0.5609027689355738  0.3679105871934011  1.0000
  H   H15       1.0  0.4835958378324603  0.9487204157094413  0.8133252313731023  1.0000
  H   H16       1.0  0.5164041614269222  0.051279584735247796  0.18667476860133383  1.0000
  H   H17       1.0  0.387451616921399  0.052560598386571164  0.7114946885238113  1.0000
  H   H18       1.0  0.612548383764191  0.9474394020497531  0.28850531142850555  1.0000
  H   H19       1.0  0.33324778000213606  0.04680824396585483  0.8715663916827299  1.0000
  H   H20       1.0  0.6667522206834539  0.9531917564704694  0.12843360826958705  1.0000
  H   H21       1.0  0.3021537935387463  0.7224824499012591  0.7676285881299244  1.0000
  H   H22       1.0  0.6978462067173394  0.2775175495477079  0.23237141181262286  1.0000
  H   H23       1.0  0.04609305096517507  0.6900105967157258  0.793955098914904  1.0000
  H   H24       1.0  0.9539069492909106  0.30998940273324105  0.2060449010276434  1.0000
  H   H25       1.0  0.08967391449035259  0.6751854913874794  0.6324973536513151  1.0000
  H   H26       1.0  0.9103260857657332  0.32481450806148743  0.3675026462912322  1.0000
  C   C1        1.0  0.07237521258889876  0.3184290414131702  0.7481885980786191  1.0000
  C   C2        1.0  0.927624788096691  0.6815709590231539  0.2518114018736977  1.0000
  C   C3        1.0  0.07422281452887049  0.26334714136957216  0.8657861278913249  1.0000
  C   C4        1.0  0.9257771861567194  0.7366528590667519  0.13421387206099192  1.0000
  C   C5        1.0  0.2598504410607213  0.2782648278876501  0.9496816742240405  1.0000
  C   C6        1.0  0.7401495581986614  0.721735172557039  0.05031832575039579  1.0000
  C   C7        1.0  0.4435107732033726  0.3485699235407702  0.9180215136098963  1.0000
  C   C8        1.0  0.5564892274822174  0.6514300768955539  0.0819784863424205  1.0000
  C   C9        1.0  0.44203306070896276  0.40708083734654127  0.8043545275317665  1.0000
  C   C10       1.0  0.5579669385504198  0.5929191630981477  0.19564547244266972  1.0000
  C   C11       1.0  0.2587583084108978  0.39264960437620783  0.7207308512486887  1.0000
  C   C12       1.0  0.7412416922746923  0.6073503960601164  0.2792691487036282  1.0000
  C   C13       1.0  0.8815891901761894  0.306978476532047  0.6566943363420833  1.0000
  C   C14       1.0  0.11841080908319321  0.6930215239126423  0.3433056636323529  1.0000
  C   C15       1.0  0.5415080141945906  0.3051484538442567  0.4987663940964321  1.0000
  C   C16       1.0  0.45849198506479194  0.6948515466004324  0.501233605878004  1.0000
  C   C17       1.0  0.735594911465777  0.182310513507512  0.5911413453530083  1.0000
  C   C18       1.0  0.2644050887903087  0.8176894859414549  0.4088586545895392  1.0000
  C   C19       1.0  0.1596699015602195  0.8766780171023562  0.7302408306069356  1.0000
  C   C20       1.0  0.8403300991253705  0.12332198333396795  0.26975916934538136  1.0000
  C   C21       1.0  0.35473691377474376  0.9861951370329132  0.7850345020192101  1.0000
  C   C22       1.0  0.645263086481342  0.013804862416053644  0.2149654979233372  1.0000
  C   C23       1.0  0.15303483134150173  0.73373223368877  0.731416396544223  1.0000
  C   C24       1.0  0.8469651693440883  0.26626776674755404  0.2685836034080939  1.0000
  N   N1        1.0  0.8534438640939421  0.42134605266473035  0.6301295604604974  1.0000
  N   N2        1.0  0.1465561361621435  0.5786539467842365  0.36987043948205  1.0000
  N   N3        1.0  0.6879757507165041  0.42421021757297095  0.5497149707570532  1.0000
  N   N4        1.0  0.31202424996908584  0.5757897828633531  0.45028502919526364  1.0000
  N   N5        1.0  0.3716345454657816  0.3128244553727315  0.42452522534790527  1.0000
  N   N6        1.0  0.6283654552198084  0.6871755450635927  0.5754747746044115  1.0000
  N   N7        1.0  0.5612553717536218  0.18455468267302486  0.5164118167272977  1.0000
  N   N8        1.0  0.43874462739239894  0.815445316933648  0.48358818422302075  1.0000
  N   N9        1.0  0.7662868748304974  0.06409292765497825  0.5981132735793975  1.0000
  N   N10       1.0  0.23371312542558847  0.9359070717939887  0.40188672636314987  1.0000
  O   O1        1.0  0.00495442108796719  0.9051072819774187  0.6848948060856734  1.0000
  O   O2        1.0  0.9950455791681185  0.09489271747154818  0.315105193856874  1.0000
  Cl  Cl1       1.0  0.8473332432863818  0.1846270139250316  0.9108774238638877  1.0000
  Cl  Cl2       1.0  0.15266675554349668  0.8153729855323003  0.08912257610077876  1.0000
  Cl  Cl3       1.0  0.26396277053628225  0.21310220726184828  0.095044445651915  1.0000
  Cl  Cl4       1.0  0.7360372301493077  0.7868977931744758  0.9049555543004019  1.0000
