data_image0
_chemical_formula_structural       H56C60N8O4S4Cl4
_chemical_formula_sum              "H56 C60 N8 O4 S4 Cl4"
_cell_length_a       16.24751608043116
_cell_length_b       8.4457768154078
_cell_length_c       10.269410678842428
_cell_angle_alpha    90.0
_cell_angle_beta     105.67468538941067
_cell_angle_gamma    90.0

_space_group_name_H-M_alt    "P 1"
_space_group_IT_number       1

loop_
  _space_group_symop_operation_xyz
  'x, y, z'

loop_
  _atom_site_type_symbol
  _atom_site_label
  _atom_site_symmetry_multiplicity
  _atom_site_fract_x
  _atom_site_fract_y
  _atom_site_fract_z
  _atom_site_occupancy
  H   H1        1.0  0.3185458666128516  0.0835511375001836  0.2158842788329155  1.0000
  H   H2        1.0  0.18145413309498457  0.5835511377720473  0.284115720534683  1.0000
  H   H3        1.0  0.6814541335902462  0.9164488630435437  0.7841157209153978  1.0000
  H   H4        1.0  0.8185458664923383  0.41644886277168003  0.71588427921189  1.0000
  H   H5        1.0  0.6785858893724473  0.3651809262083939  0.7346157388960949  1.0000
  H   H6        1.0  0.821414110094362  0.8651809264802576  0.7653842612294527  1.0000
  H   H7        1.0  0.32141411038652595  0.6348190731513097  0.2653842618618542  1.0000
  H   H8        1.0  0.1785858894929607  0.13481907406346977  0.23461573851712034  1.0000
  H   H9        1.0  0.8027484075291446  0.24164801824702914  0.9497010558260148  1.0000
  H   H10       1.0  0.6972515925534398  0.7416480173348691  0.5502989443012731  1.0000
  H   H11       1.0  0.19725159205817824  0.7583519822966981  0.05029894392055822  1.0000
  H   H12       1.0  0.3027484076496579  0.2583519820248345  0.4497010554470402  1.0000
  H   H13       1.0  0.7436040456886789  0.771131846406189  0.03992953984852841  1.0000
  H   H14       1.0  0.7563959543281801  0.271131847318349  0.4600704598095988  1.0000
  H   H15       1.0  0.25639595451441904  0.22886815295351462  0.9600704598997849  1.0000
  H   H16       1.0  0.2436040452591427  0.7288681532253782  0.5399295399369743  1.0000
  H   H17       1.0  0.8114805100273448  0.050520465947145404  0.1416528934043552  1.0000
  H   H18       1.0  0.6885194899895141  0.5505204662190091  0.358347106253772  1.0000
  H   H19       1.0  0.18851949017575298  0.949479534596582  0.8583471063439583  1.0000
  H   H20       1.0  0.31148051021358375  0.4494795343247182  0.6416528934945414  1.0000
  H   H21       1.0  0.7343328427211518  0.9053013863747024  0.28612558971728086  1.0000
  H   H22       1.0  0.7656671572957071  0.40530138610283867  0.21387440994084628  1.0000
  H   H23       1.0  0.26566715686617104  0.09469861416902499  0.7138744100292922  1.0000
  H   H24       1.0  0.2343328429073907  0.5946986144408886  0.786125589807467  1.0000
  H   H25       1.0  0.5983961863025915  0.4675028213860458  0.7912834037428632  1.0000
  H   H26       1.0  0.9016038131642179  0.9675028216579095  0.7087165963826845  1.0000
  H   H27       1.0  0.40160381345638185  0.5324971779736577  0.20871659701508602  1.0000
  H   H28       1.0  0.09839618642310487  0.03249717888581781  0.2912834033638886  1.0000
  H   H29       1.0  0.674238163082456  0.612758780288716  0.05514821273015699  1.0000
  H   H30       1.0  0.8257618371060534  0.11275878001685234  0.4448517879393462  1.0000
  H   H31       1.0  0.32576183667651737  0.3872412202550113  0.9448517880277921  1.0000
  H   H32       1.0  0.17423816309704432  0.8872412193428512  0.5551482118089671  1.0000
  H   H33       1.0  0.6011854160008964  0.8558194228876266  0.35288417692373825  1.0000
  H   H34       1.0  0.8988145840159625  0.3558194226157628  0.14711582273438886  1.0000
  H   H35       1.0  0.39881458420220145  0.1441805776561008  0.6471158228245751  1.0000
  H   H36       1.0  0.10118541618713534  0.6441805767439407  0.8528841770139245  1.0000
  H   H37       1.0  0.4459316205762495  0.9217780827214647  0.3293041170752663  1.0000
  H   H38       1.0  0.05406837913158657  0.42177808244960097  0.1706958822923321  1.0000
  H   H39       1.0  0.5540683790110732  0.07822191663823892  0.6706958826713068  1.0000
  H   H40       1.0  0.9459316210715113  0.5782219169101026  0.8293041174559812  1.0000
  H   H41       1.0  0.5421058109415064  0.5692776478806169  0.3930210353416555  1.0000
  H   H42       1.0  0.9578941890753525  0.06927764760875327  0.10697896431647161  1.0000
  H   H43       1.0  0.4578941892615914  0.4307223526631104  0.6069789644066578  1.0000
  H   H44       1.0  0.042105810511970335  0.9307223529349741  0.8930210354301015  1.0000
  H   H45       1.0  0.5892967564160577  0.5636919426185578  0.574111226370032  1.0000
  H   H46       1.0  0.9107032436665268  0.06369194234669419  0.9258887737572559  1.0000
  H   H47       1.0  0.41070324378704015  0.43630805792516947  0.4258887733782814  1.0000
  H   H48       1.0  0.08929675609244651  0.9363080581970331  0.07411122700069311  1.0000
  H   H49       1.0  0.5362481243220809  0.6292179424283548  0.11646067925762144  1.0000
  H   H50       1.0  0.963751875694778  0.12921794215649124  0.38353932040050565  1.0000
  H   H51       1.0  0.4637518758810169  0.3707820569313487  0.883539320490692  1.0000
  H   H52       1.0  0.03624812389254483  0.8707820572032123  0.6164606793460672  1.0000
  H   H53       1.0  0.5380738959085168  0.4509519270094638  0.1448008905560948  1.0000
  H   H54       1.0  0.961926104108342  0.9509519272813274  0.35519910910203234  1.0000
  H   H55       1.0  0.46192610429458103  0.5490480735342634  0.8551991091922185  1.0000
  H   H56       1.0  0.03807389609475574  0.04904807326239986  0.644800890646281  1.0000
  C   C1        1.0  0.6037779721903372  0.17336466046898513  0.07451677462335261  1.0000
  C   C2        1.0  0.8962220278265216  0.6733646607408488  0.4254832250347745  1.0000
  C   C3        1.0  0.39622202801276063  0.8266353400747422  0.9254832251249607  1.0000
  C   C4        1.0  0.10377797237657614  0.3266353398028785  0.5745167747135389  1.0000
  C   C5        1.0  0.38443033018356493  0.2104962478710917  0.09030007794536245  1.0000
  C   C6        1.0  0.11556966952427122  0.7104962469589317  0.40969992142223605  1.0000
  C   C7        1.0  0.6155696694037578  0.7895037526726356  0.9096999218012104  1.0000
  C   C8        1.0  0.8844303306788266  0.2895037524007719  0.5903000783260773  1.0000
  C   C9        1.0  0.6708791927536389  0.3021667557381193  0.9334417815023048  1.0000
  C   C10       1.0  0.8291208073289456  0.802166756009983  0.566558218624983  1.0000
  C   C11       1.0  0.3291208074494589  0.6978332436215843  0.06655821824600852  1.0000
  C   C12       1.0  0.1708791924300278  0.19783324453374435  0.433441782132966  1.0000
  C   C13       1.0  0.5265516754429541  0.14702790484998648  0.11577800592641029  1.0000
  C   C14       1.0  0.9734483247455553  0.6470279039378265  0.38422199474309293  1.0000
  C   C15       1.0  0.4734483249317942  0.8529720956937408  0.8842219948332792  1.0000
  C   C16       1.0  0.02655167484176755  0.35297209542187713  0.61577800500348  1.0000
  C   C17       1.0  0.6783728268024349  0.08480903008155263  0.13738641889782566  1.0000
  C   C18       1.0  0.8216271733860745  0.5848090303534164  0.36261358177167763  1.0000
  C   C19       1.0  0.32162717357231346  0.9151909704621747  0.8626135818618638  1.0000
  C   C20       1.0  0.17837282681702324  0.415190970190311  0.6373864179766358  1.0000
  C   C21       1.0  0.5265014727208945  0.031252500009053955  0.2163120369842256  1.0000
  C   C22       1.0  0.9734985274676149  0.5312525002809175  0.2836879636852776  1.0000
  C   C23       1.0  0.4734985274822033  0.9687475005346734  0.7836879627640877  1.0000
  C   C24       1.0  0.02650147290713341  0.4687475002628097  0.7163120370744118  1.0000
  C   C25       1.0  0.3786919529228133  0.09821176880814239  0.1898117049070364  1.0000
  C   C26       1.0  0.12130804695667331  0.5982117678959823  0.31018829547193816  1.0000
  C   C27       1.0  0.621308047451935  0.9017882317355849  0.8101882958526532  1.0000
  C   C28       1.0  0.8786919526306495  0.4017882314637212  0.6898117042746349  1.0000
  C   C29       1.0  0.6639670527672455  0.4213087058503085  0.822471097099078  1.0000
  C   C30       1.0  0.836032947315339  0.9213087061221721  0.67752890302821  1.0000
  C   C31       1.0  0.33603294699172775  0.5786912935093952  0.17752890365887114  1.0000
  C   C32       1.0  0.16396705288775892  0.07869129323753148  0.32247109672010343  1.0000
  C   C33       1.0  0.7478488073572962  0.217987330264434  0.9885561636038606  1.0000
  C   C34       1.0  0.7521511927252884  0.7179873305362976  0.5114438365234273  1.0000
  C   C35       1.0  0.2521511922300267  0.7820126690952696  0.01144383614271239  1.0000
  C   C36       1.0  0.24784880764946  0.28201267000742963  0.48855616423626214  1.0000
  C   C37       1.0  0.752071671849095  0.111439073109648  0.09185134356531514  1.0000
  C   C38       1.0  0.747928328167764  0.6114390721974879  0.4081486560928119  1.0000
  C   C39       1.0  0.24792832835400286  0.8885609274340793  0.9081486561829982  1.0000
  C   C40       1.0  0.2520716714195589  0.38856092716221563  0.591851343653761  1.0000
  C   C41       1.0  0.4492187412758639  0.008958879882068796  0.252375834120722  1.0000
  C   C42       1.0  0.05078125860362281  0.5089588789699088  0.2476241662582526  1.0000
  C   C43       1.0  0.550781258311459  0.9910411206616585  0.747624165625851  1.0000
  C   C44       1.0  0.9492187417711256  0.4910411203897948  0.7523758345014369  1.0000
  C   C45       1.0  0.6920023196456783  0.6932109310915183  0.9831482028354905  1.0000
  C   C46       1.0  0.8079976804369062  0.19321093081965468  0.5168517972917974  1.0000
  C   C47       1.0  0.3079976805574195  0.30678906945220896  0.01685179691282286  1.0000
  C   C48       1.0  0.19200231976619164  0.8067890697240726  0.4831482024565159  1.0000
  C   C49       1.0  0.6762531405813041  0.971602609132382  0.23963337756911085  1.0000
  C   C50       1.0  0.8237468596072053  0.4716026100445421  0.2603666231003924  1.0000
  C   C51       1.0  0.32374685962179367  0.028397390227321503  0.7603666221792025  1.0000
  C   C52       1.0  0.17625314015176805  0.5283973904991851  0.7396333776575568  1.0000
  C   C53       1.0  0.6027012615327416  0.9446626313218254  0.27667171482826103  1.0000
  C   C54       1.0  0.8972987384841173  0.4446626310499618  0.22332828482986605  1.0000
  C   C55       1.0  0.39729873867035626  0.05533736922190187  0.7233282849200523  1.0000
  C   C56       1.0  0.10270126110320546  0.5553373683097418  0.776671714916707  1.0000
  C   C57       1.0  0.5437152417091451  0.5075629386961269  0.4878512150696525  1.0000
  C   C58       1.0  0.9562847583077139  0.007562938424263326  0.01214878458847455  1.0000
  C   C59       1.0  0.45628475849395267  0.49243706184760033  0.5121487846786608  1.0000
  C   C60       1.0  0.04371524127960904  0.9924370621194639  0.9878512151580986  1.0000
  N   N1        1.0  0.6014350137758744  0.2812825950676383  0.9760889992844028  1.0000
  N   N2        1.0  0.8985649856909351  0.7812825953395018  0.5239110008411448  1.0000
  N   N3        1.0  0.3985649858114484  0.7187174042920652  0.02391100046217029  1.0000
  N   N4        1.0  0.10143501406803827  0.21871740520422536  0.47608899991680426  1.0000
  N   N5        1.0  0.45666917702695636  0.23492123736686724  0.05572373842115063  1.0000
  N   N6        1.0  0.04333082285253029  0.7349212376387309  0.44427626195782394  1.0000
  N   N7        1.0  0.5433308225603665  0.7650787619928363  0.9442762613254224  1.0000
  N   N8        1.0  0.956669177522218  0.26507876172097267  0.5557237388018654  1.0000
  O   O1        1.0  0.5615744227051558  0.5505543292971191  0.18725261602804302  1.0000
  O   O2        1.0  0.9384255774833538  0.05055432902525543  0.3127473846414602  1.0000
  O   O3        1.0  0.43842557766959256  0.4494456712466082  0.8127473847316465  1.0000
  O   O4        1.0  0.061574422275619684  0.9494456715184718  0.6872526161164889  1.0000
  S   S1        1.0  0.7401140824414848  0.5833381757154702  0.8704574231599823  1.0000
  S   S2        1.0  0.7598859176410999  0.08333817544360655  0.6295425769673056  1.0000
  S   S3        1.0  0.2598859177616131  0.4166618248282571  0.1295425765883311  1.0000
  S   S4        1.0  0.24011408194622308  0.9166618239160971  0.37045742277926735  1.0000
  Cl  Cl1       1.0  0.5829247168366384  0.3118428283820131  0.4698968673343562  1.0000
  Cl  Cl2       1.0  0.9170752831802206  0.811842827469853  0.03010313232377094  1.0000
  Cl  Cl3       1.0  0.41707528275068445  0.6881571721617141  0.5301031324122168  1.0000
  Cl  Cl4       1.0  0.08292471702287724  0.18815717188985054  0.9698968674245425  1.0000
