data_image0
_chemical_formula_structural       H28C26N20O8
_chemical_formula_sum              "H28 C26 N20 O8"
_cell_length_a       3.6985005648785494
_cell_length_b       15.245315366582318
_cell_length_c       13.481506466876414
_cell_angle_alpha    90.0
_cell_angle_beta     94.29555452140936
_cell_angle_gamma    90.0

_space_group_name_H-M_alt    "P 1"
_space_group_IT_number       1

loop_
  _space_group_symop_operation_xyz
  'x, y, z'

loop_
  _atom_site_type_symbol
  _atom_site_label
  _atom_site_symmetry_multiplicity
  _atom_site_fract_x
  _atom_site_fract_y
  _atom_site_fract_z
  _atom_site_occupancy
  H   H1        1.0  0.7878466321082714  0.39582514791576945  0.5488971492385778  1.0000
  H   H2        1.0  0.2878466314840708  0.6041748523084096  0.04889714916993549  1.0000
  H   H3        1.0  0.16253840019706886  0.30397099361801366  0.29851265555978934  1.0000
  H   H4        1.0  0.6625384008212694  0.6960290066061654  0.7985126556284315  1.0000
  H   H5        1.0  0.5197307227343234  0.12311785127871563  0.5271897351742546  1.0000
  H   H6        1.0  0.019730722110122934  0.8768821489454635  0.02718973510561228  1.0000
  H   H7        1.0  0.7998221896725647  0.2540643959711219  0.6225855462131996  1.0000
  H   H8        1.0  0.29982218926509174  0.7459356042530572  0.12258554688839422  1.0000
  H   H9        1.0  0.913351058456583  0.7937121482264656  0.45329862583743824  1.0000
  H   H10       1.0  0.41335105662223104  0.20628785199771343  0.9532986254802756  1.0000
  H   H11       1.0  0.9697215057131712  0.05357731541522779  0.3686666188129976  1.0000
  H   H12       1.0  0.46972150658155865  0.9464226841530121  0.8686666184520819  1.0000
  H   H13       1.0  0.6354713845356805  0.028376335260880948  0.21626922960057526  1.0000
  H   H14       1.0  0.13547138291805613  0.971623664307359  0.7162692299872493  1.0000
  H   H15       1.0  0.45891486340460214  0.8755795369940222  0.16746964669505732  1.0000
  H   H16       1.0  0.9589148611093357  0.1244204632301568  0.6674696460236156  1.0000
  H   H17       1.0  0.5707947664464492  0.519341959783607  0.7993517118664046  1.0000
  H   H18       1.0  0.07079476582224874  0.48065804044057214  0.2993517117977624  1.0000
  H   H19       1.0  0.5112217996311395  0.8311511487505954  0.7040322713362857  1.0000
  H   H20       1.0  0.011221799006938942  0.16884885147358364  0.20403227126764345  1.0000
  H   H21       1.0  0.27531375114181905  0.8618538858698297  0.5891059524872337  1.0000
  H   H22       1.0  0.775313750056704  0.13814611369841012  0.0891059521043126  1.0000
  H   H23       1.0  0.701424885110956  0.6513698464885331  0.3902905376207141  1.0000
  H   H24       1.0  0.20142488349333165  0.3486301530797068  0.8902905380073882  1.0000
  H   H25       1.0  0.6748713527821589  0.5413260769986996  0.4295033093970011  1.0000
  H   H26       1.0  0.17487135116453473  0.4586739225695402  0.9295033097836751  1.0000
  H   H27       1.0  0.25342743309567506  0.3810082920772117  0.7199370879726603  1.0000
  H   H28       1.0  0.75342743201056  0.6189917074910282  0.21993708758973904  1.0000
  C   C1        1.0  0.4543151670113773  0.36108961655636046  0.4220906128552643  1.0000
  C   C2        1.0  0.9543151649328384  0.6389103836678186  0.9220906129276596  1.0000
  C   C3        1.0  0.3287058930282819  0.20456393554416408  0.40077884103675987  1.0000
  C   C4        1.0  0.8287058936524824  0.7954360640240759  0.9007788411054021  1.0000
  C   C5        1.0  0.5059732347395494  0.1895142888505362  0.49770545985448417  1.0000
  C   C6        1.0  0.005973235607936836  0.8104857107177036  0.9977054594935685  1.0000
  C   C7        1.0  0.6587560697610844  0.2594588760472948  0.5486536529904986  1.0000
  C   C8        1.0  0.1587560718396233  0.7405411241768843  0.04865365291810339  1.0000
  C   C9        1.0  0.9379478300338323  0.9285508485465651  0.4279559192207476  1.0000
  C   C10       1.0  0.43794783090221967  0.07144915167761402  0.927955918859832  1.0000
  C   C11       1.0  0.684633215278669  0.9728808386943193  0.266435029647305  1.0000
  C   C12       1.0  0.18463321366104463  0.02711916087392062  0.7664350300339791  1.0000
  C   C13       1.0  0.5864952705162735  0.8895782011651684  0.2406973053647272  1.0000
  C   C14       1.0  0.0864952713846608  0.11042179905901064  0.7406973050038114  1.0000
  C   C15       1.0  0.6649881724091378  0.8191678768006787  0.31022318852186687  1.0000
  C   C16       1.0  0.1649881732775251  0.18083212276756114  0.8102231881609511  1.0000
  C   C17       1.0  0.23605283747304937  0.4467339819633258  0.6889013206469057  1.0000
  C   C18       1.0  0.7360528390906738  0.5532660182608533  0.1889013202602316  1.0000
  C   C19       1.0  0.31483790001741147  0.5896186575256874  0.6775355117709343  1.0000
  C   C20       1.0  0.8148379016350357  0.4103813426984917  0.17753551138426008  1.0000
  C   C21       1.0  0.2857671725899303  0.7295513062576529  0.6238250600155405  1.0000
  C   C22       1.0  0.785767171721543  0.27044869396652615  0.12382506037645621  1.0000
  C   C23       1.0  0.9865782585751564  0.6226131078145019  0.5221663941325008  1.0000
  C   C24       1.0  0.48657825795095583  0.37738689240967715  0.022166394063858445  1.0000
  C   C25       1.0  0.09855895793291167  0.5590131804476097  0.595260863057367  1.0000
  C   C26       1.0  0.5985589570645243  0.44098681912063015  0.09526086341828277  1.0000
  N   N1        1.0  0.6422951558392364  0.34217025260327094  0.5111497480348576  1.0000
  N   N2        1.0  0.14229515521503583  0.6578297469649689  0.011149747966215278  1.0000
  N   N3        1.0  0.3109233491193575  0.2908642401534053  0.36948566990971815  1.0000
  N   N4        1.0  0.810923346824091  0.7091357600707737  0.8694856692382764  1.0000
  N   N5        1.0  0.8350519077638862  0.8441861765753134  0.40175521279786736  1.0000
  N   N6        1.0  0.3350519088490011  0.1558138229929265  0.9017552131807884  1.0000
  N   N7        1.0  0.852582440888581  0.9917899089935075  0.35697940716661813  1.0000
  N   N8        1.0  0.3525824390542292  0.008210090574732366  0.8569794068094555  1.0000
  N   N9        1.0  0.05077925619830512  0.46895390276224475  0.6045306161389152  1.0000
  N   N10       1.0  0.5507792553299177  0.5310460968059951  0.10453061649983102  1.0000
  N   N11       1.0  0.40126648932986103  0.5174288488181276  0.7352201778777184  1.0000
  N   N12       1.0  0.9012664882447461  0.4825711514060515  0.23522017749479737  1.0000
  N   N13       1.0  0.4130792654916955  0.6729163741989428  0.6959830917313898  1.0000
  N   N14       1.0  0.913079264623308  0.32708362602523633  0.19598309209230566  1.0000
  N   N15       1.0  0.36957358802224094  0.8146685392434933  0.6387987729503068  1.0000
  N   N16       1.0  0.8695735869371259  0.18533146098068576  0.13879877256738568  1.0000
  N   N17       1.0  0.0856865686790254  0.7072671106322422  0.5387247098242762  1.0000
  N   N18       1.0  0.5856865702966498  0.29273288959193683  0.03872470943760211  1.0000
  N   N19       1.0  0.7928574694314444  0.6019164818403594  0.43735255077810015  1.0000
  N   N20       1.0  0.2928574702998318  0.3980835183838196  0.9373525504171843  1.0000
  O   O1        1.0  0.41632599892942285  0.4381674953502465  0.39151291302542274  1.0000
  O   O2        1.0  0.916325996850884  0.5618325048739327  0.891512913097818  1.0000
  O   O3        1.0  0.188697898637164  0.14645226066586295  0.34357876410897725  1.0000
  O   O4        1.0  0.6886978992613644  0.8535477389023769  0.8435787641776195  1.0000
  O   O5        1.0  0.10046868346133302  0.9480175242343984  0.5090893981247422  1.0000
  O   O6        1.0  0.600468685295685  0.05198247533384149  0.00908939848190498  1.0000
  O   O7        1.0  0.590598210953852  0.7402578069810021  0.2929727328474609  1.0000
  O   O8        1.0  0.09059821182223937  0.259742193243177  0.7929727324865451  1.0000
