data_image0
_chemical_formula_structural       H160B36C88N4O4Cl4
_chemical_formula_sum              "H160 B36 C88 N4 O4 Cl4"
_cell_length_a       15.439480734768273
_cell_length_b       12.266183159031343
_cell_length_c       14.117736230196426
_cell_angle_alpha    90.0
_cell_angle_beta     98.15292592191288
_cell_angle_gamma    90.0

_space_group_name_H-M_alt    "P 1"
_space_group_IT_number       1

loop_
  _space_group_symop_operation_xyz
  'x, y, z'

loop_
  _atom_site_type_symbol
  _atom_site_label
  _atom_site_symmetry_multiplicity
  _atom_site_fract_x
  _atom_site_fract_y
  _atom_site_fract_z
  _atom_site_occupancy
  H   H1        1.0  0.6027025871843403  0.6728900370220625  0.7329012298906897  1.0000
  H   H2        1.0  0.397297412842016  0.17289003698257766  0.7670987697595021  1.0000
  H   H3        1.0  0.39729741261887114  0.3271099630569072  0.26709876966615936  1.0000
  H   H4        1.0  0.6027025869611956  0.8271099630963921  0.23290122979734687  1.0000
  H   H5        1.0  0.7921212214469863  0.7521048789498536  0.7823634174768955  1.0000
  H   H6        1.0  0.2078787785793701  0.2521048789103687  0.7176365821732963  1.0000
  H   H7        1.0  0.20787877845238337  0.24789512112911624  0.21763658279550482  1.0000
  H   H8        1.0  0.7921212212238413  0.747895121168601  0.2823634173835527  1.0000
  H   H9        1.0  0.5846997173637978  0.5904984514002635  0.5213649183518386  1.0000
  H   H10       1.0  0.4153002826625584  0.09049845136077864  0.9786350812983532  1.0000
  H   H11       1.0  0.4153002824394136  0.40950154867870625  0.4786350812050104  1.0000
  H   H12       1.0  0.584699717140653  0.9095015487181911  0.021364918258495843  1.0000
  H   H13       1.0  0.6079615769018355  0.42724363251835323  0.686193323348065  1.0000
  H   H14       1.0  0.392038423220679  0.927243632557838  0.8138066770176782  1.0000
  H   H15       1.0  0.39203842299753416  0.5727563675606165  0.31380667692433534  1.0000
  H   H16       1.0  0.6079615773258894  0.07275636752113165  0.18619332325100027  1.0000
  H   H17       1.0  0.7386198462456306  0.523177972870477  0.8474246709620321  1.0000
  H   H18       1.0  0.26138015378072577  0.023177972830991996  0.6525753286881597  1.0000
  H   H19       1.0  0.2613801542047797  0.4768220272084929  0.15257532859109513  1.0000
  H   H20       1.0  0.7386198461186438  0.9768220272479778  0.3474246715842405  1.0000
  H   H21       1.0  0.7721186285121932  0.6009923514448936  0.46696426222861775  1.0000
  H   H22       1.0  0.22788137116403165  0.10099235140540873  0.03303573795043977  1.0000
  H   H23       1.0  0.22788137129101832  0.3990076486340762  0.5330357373282313  1.0000
  H   H24       1.0  0.772118628735338  0.8990076478583116  0.9669642623219605  1.0000
  H   H25       1.0  0.8542468239405544  0.47788788199237275  0.6714245615912744  1.0000
  H   H26       1.0  0.14575317618196001  0.9778878820318576  0.8285754387744686  1.0000
  H   H27       1.0  0.14575317595881523  0.522112118086597  0.3285754386811259  1.0000
  H   H28       1.0  0.8542468237174096  0.022112118047112144  0.17142456149793167  1.0000
  H   H29       1.0  0.7864750962956778  0.3556811579800781  0.7122699666621736  1.0000
  H   H30       1.0  0.21352490373067845  0.8556811580195629  0.7877300329880182  1.0000
  H   H31       1.0  0.21352490350753364  0.6443188420988917  0.2877300328946755  1.0000
  H   H32       1.0  0.7864750967197318  0.14431884205940682  0.21226996656510877  1.0000
  H   H33       1.0  0.9078297135288915  0.5685987188985345  0.7784187366829225  1.0000
  H   H34       1.0  0.09217028649746471  0.06859871885904961  0.7215812629672693  1.0000
  H   H35       1.0  0.0921702869215187  0.4314012811804353  0.22158126287020455  1.0000
  H   H36       1.0  0.9078297134019048  0.9314012812199202  0.27841873730513106  1.0000
  H   H37       1.0  0.6975156154185145  0.7662244455464505  0.43838731337827197  1.0000
  H   H38       1.0  0.30248438490490914  0.26622444550696567  0.061612686797063686  1.0000
  H   H39       1.0  0.302484384384697  0.2337755545325192  0.5616126861785771  1.0000
  H   H40       1.0  0.6975156156416592  0.733775554572004  0.9383873134716147  1.0000
  H   H41       1.0  0.7109238076180739  0.9063060648833406  0.46553508017605816  1.0000
  H   H42       1.0  0.28907619196199263  0.4063060648438558  0.034464919287448104  1.0000
  H   H43       1.0  0.2890761921851374  0.09369393519562913  0.5344649193807909  1.0000
  H   H44       1.0  0.7109238078412189  0.593693935235114  0.965535080269401  1.0000
  H   H45       1.0  0.5645899642259676  0.8689110542224837  0.3728793926184163  1.0000
  H   H46       1.0  0.435410036097456  0.3689110541829989  0.12712060755691929  1.0000
  H   H47       1.0  0.43541003567340203  0.131088945856486  0.627120607653984  1.0000
  H   H48       1.0  0.5645899644491124  0.6310889458959709  0.8728793927117591  1.0000
  H   H49       1.0  0.5519618977277623  0.9184903195991166  0.4886155421357419  1.0000
  H   H50       1.0  0.44803810194846255  0.41849031955963173  0.011384458043315645  1.0000
  H   H51       1.0  0.4480381021716074  0.08150968047985312  0.5113844581366584  1.0000
  H   H52       1.0  0.551961897950907  0.581509680519338  0.9886155422290848  1.0000
  H   H53       1.0  0.5396903151835651  0.7771082484596417  0.46294257580440384  1.0000
  H   H54       1.0  0.4603096851398585  0.2771082484201567  0.037057424370931735  1.0000
  H   H55       1.0  0.46030968471580447  0.22289175161932817  0.5370574244679964  1.0000
  H   H56       1.0  0.5396903154067099  0.7228917516588131  0.9629425758977467  1.0000
  H   H57       1.0  0.9538077761507666  0.7412043911398738  0.7588018402732661  1.0000
  H   H58       1.0  0.0461922238755897  0.2412043911003889  0.7411981593769257  1.0000
  H   H59       1.0  0.046192224299643696  0.258795608939096  0.24119815927986102  1.0000
  H   H60       1.0  0.9538077759276217  0.7587956089785808  0.2588018401799233  1.0000
  H   H61       1.0  0.07228396702306798  0.863634162530846  0.7240860146550113  1.0000
  H   H62       1.0  0.9277160330032883  0.36363416249136105  0.7759139849951806  1.0000
  H   H63       1.0  0.9277160328763017  0.1363658375481238  0.2759139856173891  1.0000
  H   H64       1.0  0.07228396679992316  0.6363658375876087  0.2240860145616684  1.0000
  H   H65       1.0  0.07689399253381309  0.9305036221961437  0.5584700998947213  1.0000
  H   H66       1.0  0.9231060075887012  0.4305036221566588  0.9415299004710219  1.0000
  H   H67       1.0  0.9231060073655566  0.06949637788282612  0.44152990037767914  1.0000
  H   H68       1.0  0.07689399231066829  0.569496377922311  0.05847009980137844  1.0000
  H   H69       1.0  0.9612314658480205  0.8702112475909691  0.42698084887253074  1.0000
  H   H70       1.0  0.03876853447540316  0.3702112475514843  0.07301915130280485  1.0000
  H   H71       1.0  0.03876853405134919  0.1297887524880006  0.5730191513998696  1.0000
  H   H72       1.0  0.961231465975007  0.6297887525274855  0.9269808482503222  1.0000
  H   H73       1.0  0.8454085395968399  0.7446713261634789  0.46067567685319005  1.0000
  H   H74       1.0  0.1545914606304256  0.24467132612399398  0.03932432260659428  1.0000
  H   H75       1.0  0.1545914602063716  0.25532867391549097  0.539324322703659  1.0000
  H   H76       1.0  0.8454085398199848  0.7553286739549758  0.9606756769465328  1.0000
  H   H77       1.0  0.5558763964965084  0.4131489049442989  0.49035742415079564  1.0000
  H   H78       1.0  0.4441236038269151  0.9131489049837838  0.009642576024539988  1.0000
  H   H79       1.0  0.44412360405005996  0.5868510943194214  0.5096425761178828  1.0000
  H   H80       1.0  0.5558763960724544  0.08685109509518599  0.9903574242478603  1.0000
  H   H81       1.0  0.521193340772188  0.2543256520430398  0.3850201353971618  1.0000
  H   H82       1.0  0.4788066595512356  0.7543256520825247  0.11497986477817378  1.0000
  H   H83       1.0  0.4788066591271816  0.7456743480359299  0.6149798648752386  1.0000
  H   H84       1.0  0.5211933409953328  0.24567434799644508  0.8850201354905046  1.0000
  H   H85       1.0  0.6413450235141362  0.13294736421731213  0.3445241206114964  1.0000
  H   H86       1.0  0.3586549767131293  0.632947364256797  0.15547587884828795  1.0000
  H   H87       1.0  0.35865497693627396  0.8670526350464082  0.6554758789416306  1.0000
  H   H88       1.0  0.6413450230900823  0.36705263500692326  0.8445241207085612  1.0000
  H   H89       1.0  0.7954560502016514  0.17738624817435275  0.40799498717997706  1.0000
  H   H90       1.0  0.2045439493784153  0.6773862482138377  0.09200501228352916  1.0000
  H   H91       1.0  0.20454394960156008  0.822613751904617  0.592005012376872  1.0000
  H   H92       1.0  0.7954560504247962  0.32261375186513214  0.9079949872733198  1.0000
  H   H93       1.0  0.8300268279870459  0.33721605950050454  0.514588814576916  1.0000
  H   H94       1.0  0.1699731720393104  0.8372160595399895  0.9854111850732759  1.0000
  H   H95       1.0  0.1699731718161656  0.6627839405784652  0.4854111849799331  1.0000
  H   H96       1.0  0.830026827763901  0.16278394053898032  0.014588814483573163  1.0000
  H   H97       1.0  0.7067654390212648  0.9142038435765173  0.6537705543964882  1.0000
  H   H98       1.0  0.29323456035789275  0.4142038435370324  0.8462294452574254  1.0000
  H   H99       1.0  0.29323456078194676  0.08579615650245248  0.34622944516036075  1.0000
  H   H100      1.0  0.7067654394453187  0.5857961565419374  0.15377055429942357  1.0000
  H   H101      1.0  0.8283642729322435  0.9508210548293345  0.7709948278952032  1.0000
  H   H102      1.0  0.17163572719027087  0.45082105478984963  0.72900517247054  1.0000
  H   H103      1.0  0.17163572696712606  0.049178945249635224  0.2290051723771971  1.0000
  H   H104      1.0  0.8283642733562975  0.5491789452891201  0.2709948277981385  1.0000
  H   H105      1.0  0.7968849221974699  0.08935220482119001  0.7772378897007337  1.0000
  H   H106      1.0  0.2031150779250445  0.5893522048606749  0.7227621106650094  1.0000
  H   H107      1.0  0.2031150777018997  0.9106477952577797  0.22276211057166662  1.0000
  H   H108      1.0  0.7968849226215238  0.41064779521829486  0.277237889603669  1.0000
  H   H109      1.0  0.919059892879758  0.05918723702290878  0.6781111005386921  1.0000
  H   H110      1.0  0.08094010724275635  0.5591872370623937  0.821888899827051  1.0000
  H   H111      1.0  0.08094010766681034  0.9408127630560611  0.3218888997299864  1.0000
  H   H112      1.0  0.9190598926566134  0.44081276301657607  0.17811110044534925  1.0000
  H   H113      1.0  0.827023737580094  0.11913759651664972  0.6079158494688089  1.0000
  H   H114      1.0  0.1729762625424204  0.6191375965561347  0.8920841508969342  1.0000
  H   H115      1.0  0.1729762623192756  0.88086240356232  0.3920841508035913  1.0000
  H   H116      1.0  0.8270237373569492  0.3808624035228351  0.10791584937546622  1.0000
  H   H117      1.0  0.8494181370016106  0.9766690269237801  0.5974622466664429  1.0000
  H   H118      1.0  0.15058186302474566  0.4766690276995447  0.9025377529837489  1.0000
  H   H119      1.0  0.15058186280160088  0.023330972339940154  0.4025377528904062  1.0000
  H   H120      1.0  0.8494181368746239  0.523330972379425  0.0974622472886513  1.0000
  H   H121      1.0  0.7028344211848562  0.8933416025124267  0.8180624604298561  1.0000
  H   H122      1.0  0.2971655782904595  0.3933416024729418  0.681937539939609  1.0000
  H   H123      1.0  0.2971655787145135  0.10665839756654306  0.1819375398425443  1.0000
  H   H124      1.0  0.7028344216089101  0.6066583976060279  0.31806246033279134  1.0000
  H   H125      1.0  0.6679226464757839  0.029690465671210465  0.828229314531072  1.0000
  H   H126      1.0  0.33207735299953167  0.5296904657106953  0.6717706858383928  1.0000
  H   H127      1.0  0.33207735342358563  0.9703095344077594  0.17177068574132826  1.0000
  H   H128      1.0  0.6679226468998379  0.4703095343682744  0.3282293144340074  1.0000
  H   H129      1.0  0.5458676663494578  0.89249253154512  0.822644073597822  1.0000
  H   H130      1.0  0.4541323337730567  0.3924925315056351  0.6773559267679211  1.0000
  H   H131      1.0  0.45413233354991184  0.10750746853384978  0.1773559266745783  1.0000
  H   H132      1.0  0.545867666126313  0.6075074685733347  0.32264407350447927  1.0000
  H   H133      1.0  0.563256604899171  0.8522106416047924  0.706162653481069  1.0000
  H   H134      1.0  0.4367433952233434  0.3522106415653075  0.793837346884674  1.0000
  H   H135      1.0  0.43674339500019854  0.14778935847417735  0.2938373467913312  1.0000
  H   H136      1.0  0.5632566046760262  0.6477893585136623  0.20616265338772627  1.0000
  H   H137      1.0  0.5242665121365496  0.9862396544350418  0.7275646007272285  1.0000
  H   H138      1.0  0.47573348798596465  0.4862396543955569  0.7724353996385146  1.0000
  H   H139      1.0  0.4757334877628199  0.013760345643928007  0.2724353995451718  1.0000
  H   H140      1.0  0.5242665119134049  0.5137603456834129  0.2275646006338857  1.0000
  H   H141      1.0  0.5924300485762982  0.028449357512085095  0.6029194888891652  1.0000
  H   H142      1.0  0.40756995154621617  0.52844935755157  0.897080511476578  1.0000
  H   H143      1.0  0.4075699513230714  0.9715506425668847  0.3970805113832351  1.0000
  H   H144      1.0  0.5924300483531535  0.47155064252739975  0.10291948879582248  1.0000
  H   H145      1.0  0.6902994317003616  0.0774849851561369  0.5674463158514866  1.0000
  H   H146      1.0  0.30970056832599474  0.5774849851956219  0.9325536837987053  1.0000
  H   H147      1.0  0.30970056884620684  0.9225150149228329  0.43255368441719183  1.0000
  H   H148      1.0  0.6902994314772167  0.42251501488334803  0.0674463157581438  1.0000
  H   H149      1.0  0.6062137200871778  0.23003935155838887  0.6206537760139498  1.0000
  H   H150      1.0  0.3937862799391784  0.7300393507826243  0.879346223636242  1.0000
  H   H151      1.0  0.3937862797160336  0.7699606485205809  0.37934622354289926  1.0000
  H   H152      1.0  0.606213719864033  0.269960648481096  0.120653775920607  1.0000
  H   H153      1.0  0.7025050399682874  0.21680294069650985  0.7026805615435601  1.0000
  H   H154      1.0  0.2974949600580688  0.7168029407359947  0.7973194381066318  1.0000
  H   H155      1.0  0.297494959834924  0.7831970593824599  0.2973194380132889  1.0000
  H   H156      1.0  0.7025050397451427  0.283197059342975  0.20268056145021734  1.0000
  H   H157      1.0  0.6016069673450654  0.16863358660000216  0.7335943963500396  1.0000
  H   H158      1.0  0.39839303277744903  0.668633586639487  0.7664056040157035  1.0000
  H   H159      1.0  0.39839303255430425  0.8313664134789676  0.2664056039223607  1.0000
  H   H160      1.0  0.6016069677691194  0.3313664134394827  0.23359439625297493  1.0000
  B   B1        1.0  0.6613003239903686  0.6313654720130216  0.6992872210362503  1.0000
  B   B2        1.0  0.3386996761321458  0.13136547197353673  0.8007127793294929  1.0000
  B   B3        1.0  0.338699675909001  0.36863452806594815  0.3007127792361501  1.0000
  B   B4        1.0  0.6613003237672238  0.868634528105433  0.19928722094290746  1.0000
  B   B5        1.0  0.768983324206234  0.678654333795011  0.7286344614138647  1.0000
  B   B6        1.0  0.2310166759162804  0.17865433375552617  0.7713655389518785  1.0000
  B   B7        1.0  0.2310166756931356  0.3213456662839587  0.27136553885853565  1.0000
  B   B8        1.0  0.7689833239830892  0.8213456663234435  0.2286344613205219  1.0000
  B   B9        1.0  0.7146330909202344  0.7003821839782824  0.6115141115012579  1.0000
  B   B10       1.0  0.28536690920228003  0.20038218393879761  0.8884858888644852  1.0000
  B   B11       1.0  0.285366909626334  0.29961781528543774  0.38848588876742046  1.0000
  B   B12       1.0  0.7146330906970896  0.7996178153249227  0.11151411140791516  1.0000
  B   B13       1.0  0.6500672431022761  0.5859039398664532  0.5775829515390754  1.0000
  B   B14       1.0  0.34993275692408005  0.08590393982696827  0.9224170481111164  1.0000
  B   B15       1.0  0.3499327567009352  0.41409606021251666  0.4224170480177736  1.0000
  B   B16       1.0  0.6500672428791314  0.9140960602520015  0.07758295144573263  1.0000
  B   B17       1.0  0.6621812397455403  0.49235721264714305  0.672874458974292  1.0000
  B   B18       1.0  0.33781876028081587  0.992357212686628  0.8271255406758998  1.0000
  B   B19       1.0  0.3378187601538291  0.5076427874318267  0.32712554129810834  1.0000
  B   B20       1.0  0.6621812395223957  0.007642787392341796  0.17287445888094916  1.0000
  B   B21       1.0  0.7409830169861552  0.54579608531858  0.7656830640788977  1.0000
  B   B22       1.0  0.2590169824891604  0.045796085279095136  0.7343169362905673  1.0000
  B   B23       1.0  0.25901698291321434  0.45420391476038974  0.2343169361935026  1.0000
  B   B24       1.0  0.7409830174102092  0.9542039147998745  0.265683063981833  1.0000
  B   B25       1.0  0.759257626673311  0.5913944530217548  0.5481144671927402  1.0000
  B   B26       1.0  0.24074237344920338  0.09139445298226982  0.951885533173003  1.0000
  B   B27       1.0  0.2407423732260586  0.4086055470572151  0.4518855330796602  1.0000
  B   B28       1.0  0.7592576264501663  0.9086055470966999  0.04811446709939736  1.0000
  B   B29       1.0  0.7748150594512427  0.44784660711309726  0.6852471171570478  1.0000
  B   B30       1.0  0.22518494002407285  0.9478466071525822  0.8147528832124173  1.0000
  B   B31       1.0  0.22518494044812679  0.5521533929658725  0.3147528831153526  1.0000
  B   B32       1.0  0.7748150598752968  0.052153392926387605  0.18524711705998304  1.0000
  B   B33       1.0  0.8425543975211932  0.5663625293973363  0.7215121681453683  1.0000
  B   B34       1.0  0.15744560250516312  0.0663625293578514  0.7784878315048234  1.0000
  B   B35       1.0  0.15744560228201834  0.4336374698663839  0.27848783141148065  1.0000
  B   B36       1.0  0.8425543972980484  0.9336374699058688  0.22151216805202556  1.0000
  C   C1        1.0  0.8212233259144608  0.6556048972804558  0.6338008663079627  1.0000
  C   C2        1.0  0.1787766742080536  0.1556048972409709  0.8661991340577805  1.0000
  C   C3        1.0  0.17877667398490876  0.344395102798514  0.36619913396443765  1.0000
  C   C4        1.0  0.8212233256913161  0.8443951028379989  0.13380086621461984  1.0000
  C   C5        1.0  0.7178157656241482  0.4776037895444759  0.5802055623261916  1.0000
  C   C6        1.0  0.28218423449836605  0.9776037895839608  0.9197944380395513  1.0000
  C   C7        1.0  0.28218423427522127  0.5223962105344938  0.4197944379462086  1.0000
  C   C8        1.0  0.7178157654010034  0.022396210495008968  0.08020556223284896  1.0000
  C   C9        1.0  0.6738742029322663  0.8331653063956899  0.47965750764027604  1.0000
  C   C10       1.0  0.32612579729499924  0.333165306356205  0.020342491819508295  1.0000
  C   C11       1.0  0.3261257968709453  0.16683469368327983  0.5203424919165731  1.0000
  C   C12       1.0  0.6738742031554109  0.6668346937227647  0.9796575077336187  1.0000
  C   C13       1.0  0.5767573939507743  0.8503784115044737  0.44969183965111986  1.0000
  C   C14       1.0  0.42324260637264927  0.3503784114649888  0.050308160524215696  1.0000
  C   C15       1.0  0.4232426065957941  0.14962158857449606  0.5503081606175585  1.0000
  C   C16       1.0  0.5767573935267203  0.6496215886139809  0.9496918397481846  1.0000
  C   C17       1.0  0.8904311455435766  0.7330864176261093  0.6124869142741972  1.0000
  C   C18       1.0  0.10956885457893768  0.23308641758662446  0.8875130860915458  1.0000
  C   C19       1.0  0.1095688543557929  0.2669135816376109  0.38751308599820306  1.0000
  C   C20       1.0  0.8904311459676306  0.7669135816770959  0.11248691417713254  1.0000
  C   C21       1.0  0.9553435804143338  0.7690825261364332  0.6857694459614934  1.0000
  C   C22       1.0  0.04465641896482361  0.2690825260969484  0.8142305536924204  1.0000
  C   C23       1.0  0.044656419485035695  0.2309174739425365  0.31423055431090696  1.0000
  C   C24       1.0  0.9553435808383879  0.7309174739820214  0.1857694458644287  1.0000
  C   C25       1.0  0.02211885855535818  0.8383458494526564  0.666305653111121  1.0000
  C   C26       1.0  0.9778811414709981  0.3383458502284211  0.8336943465390708  1.0000
  C   C27       1.0  0.977881141895052  0.16165414981106377  0.3336943464420061  1.0000
  C   C28       1.0  0.022118858332213394  0.6616541498505486  0.16630565301777825  1.0000
  C   C29       1.0  0.025303407144756214  0.875111251057471  0.5732097378433167  1.0000
  C   C30       1.0  0.9746965929777582  0.3751112518332356  0.9267902625224262  1.0000
  C   C31       1.0  0.9746965934018121  0.12488874820624923  0.42679026242536156  1.0000
  C   C32       1.0  0.025303406921611427  0.6248887482457341  0.07320973774997405  1.0000
  C   C33       1.0  0.9607093569975894  0.8412555108801171  0.49990721700899554  1.0000
  C   C34       1.0  0.0392906426786354  0.3412555108406322  9.278317006201675e-05  1.0000
  C   C35       1.0  0.039290642901780186  0.1587444883836032  0.5000927832634048  1.0000
  C   C36       1.0  0.9607093572207343  0.6587444884230881  0.9999072171023383  1.0000
  C   C37       1.0  0.8943307753058589  0.7710062606587428  0.5193110978062815  1.0000
  C   C38       1.0  0.10566922472049733  0.27100626143450746  0.9806889018439104  1.0000
  C   C39       1.0  0.1056692251445513  0.2289937386049775  0.4806889017468456  1.0000
  C   C40       1.0  0.8943307750827142  0.7289937386444624  0.01931109771293873  1.0000
  C   C41       1.0  0.6952849719268093  0.3860160408997119  0.5113464123016257  1.0000
  C   C42       1.0  0.30471502819570523  0.8860160401239472  0.9886535880641174  1.0000
  C   C43       1.0  0.3047150286197592  0.6139839591792579  0.4886535879670527  1.0000
  C   C44       1.0  0.6952849717036643  0.113983959139773  0.011346412208282928  1.0000
  C   C45       1.0  0.6087073107693587  0.3614761594959052  0.4728592975637855  1.0000
  C   C46       1.0  0.39129268890686614  0.86147615953539  0.02714070261527208  1.0000
  C   C47       1.0  0.3912926890338528  0.6385238405830646  0.5271407019930635  1.0000
  C   C48       1.0  0.6087073109925034  0.13852384054357966  0.9728592976571283  1.0000
  C   C49       1.0  0.5891684819222889  0.2710124614071488  0.41370104859963613  1.0000
  C   C50       1.0  0.410831517753936  0.7710124614466336  0.08629895157942145  1.0000
  C   C51       1.0  0.4108315179770808  0.728987538671821  0.5862989516727641  1.0000
  C   C52       1.0  0.5891684820492754  0.22898753863233612  0.9137010479774275  1.0000
  C   C53       1.0  0.655964653456841  0.20313852383374745  0.3913168330440737  1.0000
  C   C54       1.0  0.3440353462193838  0.7031385230579829  0.10868316713498383  1.0000
  C   C55       1.0  0.34403534634637056  0.7968614762452223  0.6086831665127752  1.0000
  C   C56       1.0  0.6559646536799857  0.29686147620573744  0.8913168331374166  1.0000
  C   C57       1.0  0.7427633173381204  0.22843631989441748  0.4268731450493874  1.0000
  C   C58       1.0  0.2572366822419463  0.7284363199339023  0.07312685441411884  1.0000
  C   C59       1.0  0.2572366824650911  0.7715636801845523  0.5731268545074617  1.0000
  C   C60       1.0  0.7427633175612651  0.27156368014506743  0.9268731451427301  1.0000
  C   C61       1.0  0.7621447304060847  0.31880704285103917  0.486269267500542  1.0000
  C   C62       1.0  0.23785526927014003  0.818807042890524  0.013730732678515527  1.0000
  C   C63       1.0  0.2378552694932848  0.6811929572279306  0.5137307327718583  1.0000
  C   C64       1.0  0.7621447306292296  0.18119295718844572  0.9862692675938848  1.0000
  C   C65       1.0  0.7990536339686943  0.019919916149311403  0.7285343774664566  1.0000
  C   C66       1.0  0.20094636550662118  0.5199199161887963  0.7714656229030085  1.0000
  C   C67       1.0  0.20094636593067514  0.9800800839296584  0.2714656228059437  1.0000
  C   C68       1.0  0.7990536343927485  0.4800800838901735  0.2285343773693919  1.0000
  C   C69       1.0  0.8505481172541673  0.045449346611910926  0.64749981548704  1.0000
  C   C70       1.0  0.149451882868347  0.5454493466513958  0.8525001848787032  1.0000
  C   C71       1.0  0.14945188329240097  0.9545506534670589  0.35250018478163847  1.0000
  C   C72       1.0  0.8505481170310226  0.45455065342757395  0.1474998153936972  1.0000
  C   C73       1.0  0.6624761560068765  0.9582489717957396  0.7810846534930517  1.0000
  C   C74       1.0  0.3375238440194798  0.4582489717562547  0.7189153461571401  1.0000
  C   C75       1.0  0.33752384444353384  0.04175102828323023  0.21891534606007546  1.0000
  C   C76       1.0  0.6624761557837315  0.5417510275074656  0.28108465339970884  1.0000
  C   C77       1.0  0.5685523542138506  0.9206950706328634  0.7566228605701882  1.0000
  C   C78       1.0  0.4314476459086638  0.42069507059337846  0.7433771397955549  1.0000
  C   C79       1.0  0.43144764568551897  0.07930492944610648  0.24337713970221211  1.0000
  C   C80       1.0  0.5685523546379045  0.5793049294855914  0.25662286047312344  1.0000
  C   C81       1.0  0.6550051008000773  0.0677397597302482  0.6290166086802577  1.0000
  C   C82       1.0  0.3449948992262789  0.5677397597697331  0.8709833909699343  1.0000
  C   C83       1.0  0.3449948990992922  0.9322602403487216  0.3709833915921427  1.0000
  C   C84       1.0  0.6550051012241315  0.4322602403092367  0.1290166085831929  1.0000
  C   C85       1.0  0.6408787015184573  0.17614557128222638  0.675090097328173  1.0000
  C   C86       1.0  0.3591212986040571  0.6761455713217113  0.8249099030375701  1.0000
  C   C87       1.0  0.3591212983809123  0.8238544279814939  0.3249099029442273  1.0000
  C   C88       1.0  0.6408787012953124  0.32385442794200897  0.17509009723483027  1.0000
  N   N1        1.0  0.7057710045564699  0.9866203417229665  0.6951959656019929  1.0000
  N   N2        1.0  0.2942289955660445  0.4866203416834816  0.8048040347637502  1.0000
  N   N3        1.0  0.29422899534289965  0.013379658356003247  0.3048040346704074  1.0000
  N   N4        1.0  0.7057710043333251  0.5133796583954882  0.19519596550865007  1.0000
  O   O1        1.0  0.6945774457148984  0.8091862767181951  0.5803203123229522  1.0000
  O   O2        1.0  0.30542255431145776  0.3091862766787102  0.9196796873272395  1.0000
  O   O3        1.0  0.30542255473551183  0.19081372336077468  0.4196796872301749  1.0000
  O   O4        1.0  0.6945774455879117  0.6908137234002595  0.08032031294516073  1.0000
  Cl  Cl1       1.0  0.00016479574438003057  0.019638783872441643  0.06852133904378414  1.0000
  Cl  Cl2       1.0  0.9998352045790435  0.5196387839119265  0.4314786611315515  1.0000
  Cl  Cl3       1.0  0.9998352048021883  0.9803612162065282  0.9314786612248943  1.0000
  Cl  Cl4       1.0  0.0001647953203260511  0.48036121616704325  0.5685213391408489  1.0000
