data_image0
_chemical_formula_structural       H128C120N16O24
_chemical_formula_sum              "H128 C120 N16 O24"
_cell_length_a       31.52147124749503
_cell_length_b       5.416025546050698
_cell_length_c       20.612906574384606
_cell_angle_alpha    90.0
_cell_angle_beta     128.66507779154398
_cell_angle_gamma    90.0

_space_group_name_H-M_alt    "P 1"
_space_group_IT_number       1

loop_
  _space_group_symop_operation_xyz
  'x, y, z'

loop_
  _atom_site_type_symbol
  _atom_site_label
  _atom_site_symmetry_multiplicity
  _atom_site_fract_x
  _atom_site_fract_y
  _atom_site_fract_z
  _atom_site_occupancy
  H   H1        1.0  0.6728168588142057  0.36530655610417234  0.20990698250961864  1.0000
  H   H2        1.0  0.32718314151961914  0.36530655610417234  0.7900930176360595  1.0000
  H   H3        1.0  0.17281685881484535  0.8653065573919526  0.20990698252451104  1.0000
  H   H4        1.0  0.8271831415189794  0.8653065573919526  0.7900930176211672  1.0000
  H   H5        1.0  0.5830331278019929  0.4130276991826915  0.2280952835156901  1.0000
  H   H6        1.0  0.41696687253108394  0.4130276991826915  0.7719047171144056  1.0000
  H   H7        1.0  0.08303312780263257  0.9130276986240994  0.22809528353058262  1.0000
  H   H8        1.0  0.9169668725304443  0.9130276986240994  0.7719047170995131  1.0000
  H   H9        1.0  0.63473930312269  0.18778202601751165  0.27656487084331327  1.0000
  H   H10       1.0  0.3652606968048349  0.18778202601751165  0.7234351289132931  1.0000
  H   H11       1.0  0.1347393031233297  0.6877820254589195  0.2765648708582056  1.0000
  H   H12       1.0  0.8652606968041953  0.6877820254589195  0.7234351288984007  1.0000
  H   H13       1.0  0.5855373041792289  0.19166871743375688  0.16714390111814614  1.0000
  H   H14       1.0  0.41446269574829603  0.19166871743375688  0.8328560986384601  1.0000
  H   H15       1.0  0.0855373041798686  0.6916687168751647  0.16714390113303854  1.0000
  H   H16       1.0  0.9144626957476564  0.6916687168751647  0.8328560986235678  1.0000
  H   H17       1.0  0.7584448704891257  0.5330495905997293  0.3128430123951202  1.0000
  H   H18       1.0  0.24155512943839938  0.5330495905997293  0.6871569873614861  1.0000
  H   H19       1.0  0.2584448704897653  0.03304959115832141  0.31284301241001267  1.0000
  H   H20       1.0  0.7415551294377597  0.03304959115832141  0.6871569873465936  1.0000
  H   H21       1.0  0.8200286721922385  0.7820857405461635  0.4395484141606442  1.0000
  H   H22       1.0  0.17997132773528637  0.7820857405461635  0.560451585595962  1.0000
  H   H23       1.0  0.3200286721928782  0.2820857411047556  0.4395484141755367  1.0000
  H   H24       1.0  0.6799713277346466  0.2820857411047556  0.5604515855810696  1.0000
  H   H25       1.0  0.7837469612450412  0.017836524067070144  0.5001895516613877  1.0000
  H   H26       1.0  0.21625303868248377  0.017836524067070144  0.49981044809521846  1.0000
  H   H27       1.0  0.2837469612456809  0.517836523508478  0.5001895516762802  1.0000
  H   H28       1.0  0.7162530386818441  0.517836523508478  0.4998104480803261  1.0000
  H   H29       1.0  0.6850750392642778  0.011212570820365097  0.42876631056253856  1.0000
  H   H30       1.0  0.31492496106954704  0.011212570820365097  0.5712336895831397  1.0000
  H   H31       1.0  0.1850750392649174  0.5112125721081453  0.42876631057743103  1.0000
  H   H32       1.0  0.8149249610689074  0.5112125721081453  0.5712336895682473  1.0000
  H   H33       1.0  0.6230686906183774  0.759551589079874  0.3019679998550104  1.0000
  H   H34       1.0  0.3769313097154474  0.759551589079874  0.698032000290668  1.0000
  H   H35       1.0  0.12306869061901711  0.2595515896384661  0.30196799986990275  1.0000
  H   H36       1.0  0.8769313097148076  0.2595515896384661  0.6980320002757755  1.0000
  H   H37       1.0  0.6220265999168074  0.8618725115511678  0.07218715648034374  1.0000
  H   H38       1.0  0.37797340001071755  0.8618725115511678  0.9278128432762625  1.0000
  H   H39       1.0  0.12202659991744709  0.36187251210975985  0.07218715649523615  1.0000
  H   H40       1.0  0.8779734000100777  0.36187251210975985  0.92781284326137  1.0000
  H   H41       1.0  0.3840189955460261  0.4198207025921432  0.26701891211403433  1.0000
  H   H42       1.0  0.6159810047870506  0.4198207025921432  0.7329810885160614  1.0000
  H   H43       1.0  0.8840189955453863  0.9198207020335512  0.26701891209914186  1.0000
  H   H44       1.0  0.11598100478843841  0.9198207020335512  0.7329810880465364  1.0000
  H   H45       1.0  0.2961592814043137  0.47161268319026683  0.28888598475701943  1.0000
  H   H46       1.0  0.7038407185224631  0.47161268319026683  0.7111140154840042  1.0000
  H   H47       1.0  0.796159281403674  0.9716126826316747  0.2888859847421269  1.0000
  H   H48       1.0  0.20384071852310293  0.9716126826316747  0.7111140154988966  1.0000
  H   H49       1.0  0.2994719745867357  0.6551057744894151  0.22026023306262035  1.0000
  H   H50       1.0  0.7005280253407893  0.6551057744894151  0.7797397666939859  1.0000
  H   H51       1.0  0.7994719745860961  0.1551057750480072  0.22026023304772796  1.0000
  H   H52       1.0  0.20052802534142894  0.1551057750480072  0.7797397667088785  1.0000
  H   H53       1.0  0.3522074626544145  0.6682990911369159  0.3290000830643815  1.0000
  H   H54       1.0  0.6477925372731104  0.6682990911369159  0.6709999166922247  1.0000
  H   H55       1.0  0.8522074626537749  0.16829909169550797  0.3290000830494891  1.0000
  H   H56       1.0  0.14779253727375008  0.16829909169550797  0.670999916707117  1.0000
  H   H57       1.0  0.24211455566616374  0.26957785143104507  0.1721673277796079  1.0000
  H   H58       1.0  0.757885444260613  0.26957785143104507  0.8278326724614158  1.0000
  H   H59       1.0  0.742114555665524  0.7695778508724531  0.17216732776471544  1.0000
  H   H60       1.0  0.25788544426125287  0.7695778508724531  0.8278326724763083  1.0000
  H   H61       1.0  0.18543034438903386  0.9870520189658569  0.05486426531848997  1.0000
  H   H62       1.0  0.814569655944043  0.9870520189658569  0.9451357353116057  1.0000
  H   H63       1.0  0.6854303443883941  0.48705201952444915  0.05486426530359761  1.0000
  H   H64       1.0  0.3145696559446826  0.48705201952444915  0.9451357353264981  1.0000
  H   H65       1.0  0.2270266642165047  0.714664863946668  0.009314945930984142  1.0000
  H   H66       1.0  0.7729733357110202  0.714664863946668  0.9906850538256221  1.0000
  H   H67       1.0  0.7270266642158649  0.21466486450525998  0.009314945916091713  1.0000
  H   H68       1.0  0.2729733357116599  0.21466486450525998  0.9906850538405144  1.0000
  H   H69       1.0  0.32693287566456747  0.7269597154819522  0.08736538993440925  1.0000
  H   H70       1.0  0.6730671242622094  0.7269597154819522  0.9126346103066145  1.0000
  H   H71       1.0  0.8269328756639277  0.22695971419417182  0.08736538991951677  1.0000
  H   H72       1.0  0.1730671242628492  0.22695971419417182  0.912634610321507  1.0000
  H   H73       1.0  0.38401842310577416  0.015267472299922192  0.2046553389265933  1.0000
  H   H74       1.0  0.6159815768217508  0.015267472299922192  0.795344660830013  1.0000
  H   H75       1.0  0.8840184231051345  0.5152674735877024  0.20465533891170096  1.0000
  H   H76       1.0  0.11598157682239045  0.5152674735877024  0.7953446608449054  1.0000
  H   H77       1.0  0.38019016709592546  0.9939233639555676  0.4274636154283405  1.0000
  H   H78       1.0  0.6198098328308514  0.9939233639555676  0.5725363848126832  1.0000
  H   H79       1.0  0.8801901670952859  0.49392336266778736  0.4274636154134481  1.0000
  H   H80       1.0  0.11980983283149113  0.49392336266778736  0.5725363848275757  1.0000
  H   H81       1.0  0.5035638430901295  0.5082373461120734  0.9362335380943582  1.0000
  H   H82       1.0  0.4964361568366474  0.5082373461120734  0.06376646214666562  1.0000
  H   H83       1.0  0.003563843090769239  0.008237346670665498  0.9362335381092506  1.0000
  H   H84       1.0  0.9964361568360076  0.008237346670665498  0.06376646213177314  1.0000
  H   H85       1.0  0.5465754867308361  0.15149274002193186  0.035653768661249675  1.0000
  H   H86       1.0  0.4534245131966888  0.15149274002193186  0.9643462310953567  1.0000
  H   H87       1.0  0.04657548673147584  0.6514927394633397  0.035653768676142145  1.0000
  H   H88       1.0  0.9534245131960492  0.6514927394633397  0.9643462310804641  1.0000
  H   H89       1.0  0.6436639814554475  0.9798928115968529  0.9714534492894191  1.0000
  H   H90       1.0  0.35633601847207746  0.9798928115968529  0.02854655046718702  1.0000
  H   H91       1.0  0.14366398145608714  0.4798928121554452  0.9714534493043115  1.0000
  H   H92       1.0  0.8563360184714379  0.4798928121554452  0.028546550452294633  1.0000
  H   H93       1.0  0.6031283136351506  0.3230410501434556  0.8657896691786117  1.0000
  H   H94       1.0  0.39687168629162634  0.3230410501434556  0.134210331062412  1.0000
  H   H95       1.0  0.10312831363579032  0.8230410514312357  0.8657896691935042  1.0000
  H   H96       1.0  0.8968716862909866  0.8230410514312357  0.1342103310475196  1.0000
  H   H97       1.0  0.4727753905101393  0.9298290318575353  0.7733380478503223  1.0000
  H   H98       1.0  0.5272246094173856  0.9298290318575353  0.22666195190628385  1.0000
  H   H99       1.0  0.9727753905094996  0.42982903241612747  0.7733380478354298  1.0000
  H   H100      1.0  0.02722460941802529  0.42982903241612747  0.22666195192117627  1.0000
  H   H101      1.0  0.469948296655096  0.7531237113485022  0.8432152060450389  1.0000
  H   H102      1.0  0.5300517032716809  0.7531237113485022  0.15678479419598484  1.0000
  H   H103      1.0  0.9699482966544563  0.25312371190709426  0.8432152060301464  1.0000
  H   H104      1.0  0.03005170327232064  0.25312371190709426  0.15678479421087732  1.0000
  H   H105      1.0  0.5006574429992644  0.3618616277445554  0.5692379723066976  1.0000
  H   H106      1.0  0.4993425569282605  0.3618616277445554  0.4307620274499086  1.0000
  H   H107      1.0  0.0006574429999040962  0.8618616290323357  0.5692379723215901  1.0000
  H   H108      1.0  0.9993425569276208  0.8618616290323357  0.43076202743501624  1.0000
  H   H109      1.0  0.4577416983093244  0.7210056169043495  0.4694532126111134  1.0000
  H   H110      1.0  0.5422583016182005  0.7210056169043495  0.530546787145493  1.0000
  H   H111      1.0  0.9577416983086846  0.2210056174629416  0.4694532125962208  1.0000
  H   H112      1.0  0.042258301618840276  0.2210056174629416  0.5305467871603853  1.0000
  H   H113      1.0  0.3520334842639014  0.8593701304444386  0.5191094411768016  1.0000
  H   H114      1.0  0.6479665160699234  0.8593701304444386  0.4808905589688767  1.0000
  H   H115      1.0  0.8520334842632618  0.35937013100303067  0.5191094411619092  1.0000
  H   H116      1.0  0.14796651607056308  0.35937013100303067  0.4808905589837692  1.0000
  H   H117      1.0  0.39128808199312876  0.5102030957027051  0.6235560571338268  1.0000
  H   H118      1.0  0.6087119179343962  0.5102030957027051  0.3764439426227794  1.0000
  H   H119      1.0  0.8912880819924891  0.0102030962612972  0.6235560571189345  1.0000
  H   H120      1.0  0.10871191793503589  0.0102030962612972  0.37644394263767184  1.0000
  H   H121      1.0  0.52490640526256  0.9208418475124591  0.7234795320433852  1.0000
  H   H122      1.0  0.4750935946649649  0.9208418475124591  0.2765204677132211  1.0000
  H   H123      1.0  0.02490640526319971  0.42084184622467885  0.7234795320582775  1.0000
  H   H124      1.0  0.9750935946643252  0.42084184622467885  0.27652046769832855  1.0000
  H   H125      1.0  0.5298064444917241  0.09970499684842977  0.6560721153582695  1.0000
  H   H126      1.0  0.4701935554358008  0.09970499684842977  0.3439278843983369  1.0000
  H   H127      1.0  0.02980644449236385  0.5997049962898376  0.6560721153731619  1.0000
  H   H128      1.0  0.9701935554351611  0.5997049962898376  0.3439278843834443  1.0000
  C   C1        1.0  0.616744448915403  0.6587911393072665  0.14723150247529393  1.0000
  C   C2        1.0  0.38325555101212194  0.6587911393072665  0.8527684972813123  1.0000
  C   C3        1.0  0.11674444891604269  0.15879113801948627  0.1472315024901863  1.0000
  C   C4        1.0  0.8832555510114822  0.15879113801948627  0.8527684972664199  1.0000
  C   C5        1.0  0.6478759495625317  0.4763243559442124  0.21936593775475335  1.0000
  C   C6        1.0  0.35212405036424527  0.4763243559442124  0.7806340624862704  1.0000
  C   C7        1.0  0.1478759495631714  0.9763243553856202  0.21936593776964583  1.0000
  C   C8        1.0  0.8521240503636054  0.9763243553856202  0.7806340624713779  1.0000
  C   C9        1.0  0.6103376971744391  0.30892915400298554  0.22249604226156172  1.0000
  C   C10       1.0  0.38966230275233793  0.30892915400298554  0.777503957979462  1.0000
  C   C11       1.0  0.11033769717582671  0.8089291534443934  0.2224960417920367  1.0000
  C   C12       1.0  0.8896623027516981  0.8089291534443934  0.7775039579645696  1.0000
  C   C13       1.0  0.686371460991122  0.6245177559153887  0.2989714937968988  1.0000
  C   C14       1.0  0.31362853893565495  0.6245177559153887  0.701028506444125  1.0000
  C   C15       1.0  0.1863714609917616  0.12451775647398083  0.2989714938117912  1.0000
  C   C16       1.0  0.8136285389350154  0.12451775647398083  0.7010285064292326  1.0000
  C   C17       1.0  0.7420776351198222  0.633935377668889  0.33862563985082955  1.0000
  C   C18       1.0  0.2579223652140027  0.633935377668889  0.6613743602948488  1.0000
  C   C19       1.0  0.24207763512046182  0.13393537822748108  0.33862563986572203  1.0000
  C   C20       1.0  0.757922365213363  0.13393537822748108  0.6613743602799562  1.0000
  C   C21       1.0  0.7770302769424297  0.7742413960838337  0.41067465990059987  1.0000
  C   C22       1.0  0.22296972298434733  0.7742413960838337  0.5893253403404238  1.0000
  C   C23       1.0  0.27703027694306925  0.27424139664242575  0.41067465991549235  1.0000
  C   C24       1.0  0.7229697229837078  0.27424139664242575  0.5893253403255315  1.0000
  C   C25       1.0  0.7568605007682896  0.907806641271329  0.4440507282788226  1.0000
  C   C26       1.0  0.24313949915923527  0.907806641271329  0.5559492714777836  1.0000
  C   C27       1.0  0.25686050076892936  0.40780664182992116  0.44405072829371506  1.0000
  C   C28       1.0  0.7431394991585956  0.40780664182992116  0.5559492714628912  1.0000
  C   C29       1.0  0.7013237558409686  0.9011321638907046  0.4044944442489573  1.0000
  C   C30       1.0  0.29867624449210833  0.9011321638907046  0.5955055563811386  1.0000
  C   C31       1.0  0.20132375584160817  0.4011321626029242  0.40449444426384973  1.0000
  C   C32       1.0  0.7986762444914687  0.4011321626029242  0.595505556366246  1.0000
  C   C33       1.0  0.6664491312113995  0.7598045734848311  0.3328361533365332  1.0000
  C   C34       1.0  0.3335508687161254  0.7598045734848311  0.6671638464200731  1.0000
  C   C35       1.0  0.1664491312120393  0.25980457404342316  0.33283615335142563  1.0000
  C   C36       1.0  0.8335508687154856  0.25980457404342316  0.6671638464051806  1.0000
  C   C37       1.0  0.3852245966373444  0.17721022026933692  0.34872790038537566  1.0000
  C   C38       1.0  0.6147754032901805  0.17721022026933692  0.6512720993712305  1.0000
  C   C39       1.0  0.8852245966367047  0.6772102215571172  0.3487279003704831  1.0000
  C   C40       1.0  0.11477540329082024  0.6772102215571172  0.651272099386123  1.0000
  C   C41       1.0  0.3536660908908517  0.3390723039220335  0.2710158250291432  1.0000
  C   C42       1.0  0.6463339090366732  0.3390723039220335  0.728984174727463  1.0000
  C   C43       1.0  0.8536660908902121  0.8390723033634414  0.27101582501425076  1.0000
  C   C44       1.0  0.14633390903731291  0.8390723033634414  0.7289841747423556  1.0000
  C   C45       1.0  0.3232803304167452  0.5452221421210331  0.2773191766001813  1.0000
  C   C46       1.0  0.6767196695107797  0.5452221421210331  0.7226808231564249  1.0000
  C   C47       1.0  0.8232803304161055  0.04522214083325288  0.27731917658528893  1.0000
  C   C48       1.0  0.17671966951141937  0.04522214083325288  0.7226808231713173  1.0000
  C   C49       1.0  0.31734710087838663  0.16805622356484357  0.19639639699051942  1.0000
  C   C50       1.0  0.6826528990491384  0.16805622356484357  0.8036036027660869  1.0000
  C   C51       1.0  0.817347100877747  0.6680562230062514  0.196396396975627  1.0000
  C   C52       1.0  0.182652899049778  0.6680562230062514  0.8036036027809792  1.0000
  C   C53       1.0  0.2612677176569868  0.15529450015487922  0.15352961764153975  1.0000
  C   C54       1.0  0.7387322822705381  0.15529450015487922  0.8464703821150665  1.0000
  C   C55       1.0  0.7612677176563472  0.6552944995962872  0.15352961762664735  1.0000
  C   C56       1.0  0.2387322822711778  0.6552944995962872  0.8464703821299588  1.0000
  C   C57       1.0  0.22892420264814653  0.9935913086532598  0.08659502903881608  1.0000
  C   C58       1.0  0.7710757972793784  0.9935913086532598  0.9134049707177903  1.0000
  C   C59       1.0  0.7289242026475068  0.493591309211852  0.08659502902392358  1.0000
  C   C60       1.0  0.2710757972800181  0.493591309211852  0.9134049707326827  1.0000
  C   C61       1.0  0.25202342554253393  0.8405370471931275  0.061668190737462124  1.0000
  C   C62       1.0  0.7479765743849909  0.8405370471931275  0.938331809019144  1.0000
  C   C63       1.0  0.7520234255418943  0.3405370477517196  0.06166819072256978  1.0000
  C   C64       1.0  0.24797657438563067  0.3405370477517196  0.9383318090340366  1.0000
  C   C65       1.0  0.30810975200761254  0.8494422341406244  0.10486364537984814  1.0000
  C   C66       1.0  0.6918902479199125  0.8494422341406244  0.8951363543767582  1.0000
  C   C67       1.0  0.8081097520069728  0.3494422346992164  0.10486364536495568  1.0000
  C   C68       1.0  0.19189024792055212  0.3494422346992164  0.8951363543916505  1.0000
  C   C69       1.0  0.3403291787475668  0.012335794842902427  0.17129429597129012  1.0000
  C   C70       1.0  0.65967082158551  0.012335794842902427  0.8287057046588057  1.0000
  C   C71       1.0  0.840329178746927  0.5123357942843103  0.17129429595639753  1.0000
  C   C72       1.0  0.15967082158614973  0.5123357942843103  0.8287057046736981  1.0000
  C   C73       1.0  0.5501818190800409  0.4416197578211369  0.8924514179082967  1.0000
  C   C74       1.0  0.4498181808467361  0.4416197578211369  0.10754858233272703  1.0000
  C   C75       1.0  0.05018181908068058  0.9416197572625449  0.892451417923189  1.0000
  C   C76       1.0  0.9498181808460964  0.9416197572625449  0.10754858231783455  1.0000
  C   C77       1.0  0.533982884700755  0.39543003661821213  0.9409141287528935  1.0000
  C   C78       1.0  0.4660171152267699  0.39543003661821213  0.05908587100371276  1.0000
  C   C79       1.0  0.03398288470139467  0.8954300379059925  0.9409141287677858  1.0000
  C   C80       1.0  0.9660171152261302  0.8954300379059925  0.05908587098882024  1.0000
  C   C81       1.0  0.5578207860187651  0.19964664324533418  0.9968006705743582  1.0000
  C   C82       1.0  0.4421792139080118  0.19964664324533418  0.0031993296666655933  1.0000
  C   C83       1.0  0.0578207860194048  0.699646642686742  0.9968006705892506  1.0000
  C   C84       1.0  0.9421792139073722  0.699646642686742  0.003199329651773121  1.0000
  C   C85       1.0  0.6121311131112314  0.1004553865881834  0.9608095809614682  1.0000
  C   C86       1.0  0.3878688868162936  0.1004553865881834  0.03919041879513804  1.0000
  C   C87       1.0  0.11213111311187102  0.6004553860295914  0.9608095809763606  1.0000
  C   C88       1.0  0.887868886815654  0.6004553860295914  0.03919041878024557  1.0000
  C   C89       1.0  0.5899456339726176  0.2900348635071405  0.9028012334222818  1.0000
  C   C90       1.0  0.4100543663612072  0.2900348635071405  0.09719876672339646  1.0000
  C   C91       1.0  0.08994563397325726  0.7900348629485484  0.9028012334371741  1.0000
  C   C92       1.0  0.9100543663605675  0.7900348629485484  0.0971987667085039  1.0000
  C   C93       1.0  0.5279814682950347  0.6482960152505773  0.8303397498497634  1.0000
  C   C94       1.0  0.4720185320387901  0.6482960152505773  0.16966025029591486  1.0000
  C   C95       1.0  0.027981468295674362  0.14829601396279707  0.8303397498646558  1.0000
  C   C96       1.0  0.9720185320381505  0.14829601396279707  0.16966025028102247  1.0000
  C   C97       1.0  0.4491707907439597  0.4120163339383022  0.6051546550078404  1.0000
  C   C98       1.0  0.5508292091835651  0.4120163339383022  0.3948453447487658  1.0000
  C   C99       1.0  0.94917079074332  0.9120163352260825  0.6051546549929478  1.0000
  C   C100      1.0  0.05082920918420488  0.9120163352260825  0.3948453447636582  1.0000
  C   C101      1.0  0.4683721932396152  0.4684951609672944  0.5612950031147902  1.0000
  C   C102      1.0  0.5316278066879097  0.4684951609672944  0.43870499664181606  1.0000
  C   C103      1.0  0.9683721932389756  0.9684951622550747  0.5612950030998978  1.0000
  C   C104      1.0  0.03162780668854936  0.9684951622550747  0.43870499665670853  1.0000
  C   C105      1.0  0.44487589468829386  0.6648537824245877  0.5056211674771808  1.0000
  C   C106      1.0  0.5551241052392311  0.6648537824245877  0.4943788322794255  1.0000
  C   C107      1.0  0.9448758946876541  0.16485378298317988  0.5056211674622884  1.0000
  C   C108      1.0  0.05512410523987082  0.16485378298317988  0.49437883229431795  1.0000
  C   C109      1.0  0.3854656847650596  0.745725847424242  0.5333298931565006  1.0000
  C   C110      1.0  0.6145343155680171  0.745725847424242  0.46667010747359516  1.0000
  C   C111      1.0  0.8854656847644199  0.24572584798283412  0.5333298931416081  1.0000
  C   C112      1.0  0.11453431556940485  0.24572584798283412  0.4666701070040702  1.0000
  C   C113      1.0  0.4069045594810832  0.5539747910140146  0.5904746714701212  1.0000
  C   C114      1.0  0.5930954404464417  0.5539747910140146  0.409525328286485  1.0000
  C   C115      1.0  0.9069045594804436  0.05397479157260673  0.5904746714552289  1.0000
  C   C116      1.0  0.09309544044708143  0.05397479157260673  0.4095253283013775  1.0000
  C   C117      1.0  0.47045895164945634  0.2033194785801869  0.6664995260801834  1.0000
  C   C118      1.0  0.5295410482773206  0.2033194785801869  0.3335004741608404  1.0000
  C   C119      1.0  0.9704589516488166  0.7033194780215948  0.6664995260652907  1.0000
  C   C120      1.0  0.02954104827796031  0.7033194780215948  0.33350047417573286  1.0000
  N   N1        1.0  0.4877088956034111  0.7859702440111336  0.8160154331334538  1.0000
  N   N2        1.0  0.5122911043241138  0.7859702440111336  0.18398456662315246  1.0000
  N   N3        1.0  0.9877088956020234  0.28597024456972564  0.8160154336029787  1.0000
  N   N4        1.0  0.012291104324753511  0.28597024456972564  0.18398456663804497  1.0000
  N   N5        1.0  0.5962527902425975  0.05631047664137904  0.006839119183223679  1.0000
  N   N6        1.0  0.40374720968492744  0.05631047664137904  0.9931608805733826  1.0000
  N   N7        1.0  0.0962527902432372  0.5563104760827869  0.006839119198116118  1.0000
  N   N8        1.0  0.9037472096842876  0.5563104760827869  0.9931608805584901  1.0000
  N   N9        1.0  0.5112122366284072  0.06753486609137499  0.6822139648288448  1.0000
  N   N10       1.0  0.4887877632983697  0.06753486609137499  0.31778603541217887  1.0000
  N   N11       1.0  0.011212236629046884  0.5675348655327829  0.6822139648437373  1.0000
  N   N12       1.0  0.9887877632977301  0.5675348655327829  0.31778603539728656  1.0000
  N   N13       1.0  0.4043643958577767  0.8003971848251362  0.49204668093517895  1.0000
  N   N14       1.0  0.5956356040690002  0.8003971848251362  0.5079533193058449  1.0000
  N   N15       1.0  0.9043643958571371  0.30039718538372834  0.4920466809202865  1.0000
  N   N16       1.0  0.09563560406963985  0.30039718538372834  0.5079533193207372  1.0000
  O   O1        1.0  0.6438682380533003  0.7256647566712217  0.1209541179208428  1.0000
  O   O2        1.0  0.35613176187347667  0.7256647566712217  0.8790458823201808  1.0000
  O   O3        1.0  0.14386823805393995  0.22566475722981372  0.12095411793573524  1.0000
  O   O4        1.0  0.8561317618728369  0.22566475722981372  0.8790458823052885  1.0000
  O   O5        1.0  0.5709334626481632  0.7404927535698995  0.11726645785892671  1.0000
  O   O6        1.0  0.4290665372786137  0.7404927535698995  0.882733542382097  1.0000
  O   O7        1.0  0.07093346264880293  0.2404927541284916  0.1172664578738192  1.0000
  O   O8        1.0  0.9290665372779741  0.2404927541284916  0.8827335423672044  1.0000
  O   O9        1.0  0.3585219115414544  0.12562013679867368  0.3766266092014293  1.0000
  O   O10       1.0  0.6414780883853226  0.12562013679867368  0.6233733910395944  1.0000
  O   O11       1.0  0.8585219115408146  0.6256201362400815  0.376626609186537  1.0000
  O   O12       1.0  0.14147808838596224  0.6256201362400815  0.6233733910544869  1.0000
  O   O13       1.0  0.43161329447502567  0.09602430889182734  0.3816966619146111  1.0000
  O   O14       1.0  0.5683867054524993  0.09602430889182734  0.6183033378419951  1.0000
  O   O15       1.0  0.9316132944743858  0.5960243083332353  0.38169666189971857  1.0000
  O   O16       1.0  0.06838670545313899  0.5960243083332353  0.6183033378568876  1.0000
  O   O17       1.0  0.5487257060388054  0.6839599921571944  0.7952462938746088  1.0000
  O   O18       1.0  0.45127429388871954  0.6839599921571944  0.20475370588199746  1.0000
  O   O19       1.0  0.04872570603944517  0.1839599927157865  0.7952462938895012  1.0000
  O   O20       1.0  0.9512742938880797  0.1839599927157865  0.20475370586710498  1.0000
  O   O21       1.0  0.4484275013067508  0.16412077499305047  0.6994898343108858  1.0000
  O   O22       1.0  0.5515724986200261  0.16412077499305047  0.30051016593013785  1.0000
  O   O23       1.0  0.9484275013061112  0.6641207762808308  0.6994898342959935  1.0000
  O   O24       1.0  0.05157249862066579  0.6641207762808308  0.3005101659450303  1.0000
