data_image0
_chemical_formula_structural       H28B2C36N4O4Br2
_chemical_formula_sum              "H28 B2 C36 N4 O4 Br2"
_cell_length_a       7.563371092590326
_cell_length_b       9.026226765602742
_cell_length_c       11.529756002071437
_cell_angle_alpha    81.3954060984114
_cell_angle_beta     87.49507915276122
_cell_angle_gamma    83.31264460390362

_space_group_name_H-M_alt    "P 1"
_space_group_IT_number       1

loop_
  _space_group_symop_operation_xyz
  'x, y, z'

loop_
  _atom_site_type_symbol
  _atom_site_label
  _atom_site_symmetry_multiplicity
  _atom_site_fract_x
  _atom_site_fract_y
  _atom_site_fract_z
  _atom_site_occupancy
  H   H1        1.0  0.3454094081756418  0.727242434104238  0.49946893906466444  1.0000
  H   H2        1.0  0.6545905911178923  0.2727575652014603  0.500531060907742  1.0000
  H   H3        1.0  0.04883519356469755  0.417100178537545  0.728510281232256  1.0000
  H   H4        1.0  0.9511648068784487  0.5828998217016536  0.27148971962051616  1.0000
  H   H5        1.0  0.7677605350189188  0.5756241259325233  0.671360740576489  1.0000
  H   H6        1.0  0.23223946412842233  0.4243758744871877  0.3286392594033584  1.0000
  H   H7        1.0  0.060341099571204766  0.8814107466801153  0.43712441251619716  1.0000
  H   H8        1.0  0.9396588995761364  0.11858925373959567  0.5628755874636502  1.0000
  H   H9        1.0  0.6074222210773542  0.8274802063985759  0.6857012894699765  1.0000
  H   H10       1.0  0.3925777795395402  0.17251979290032446  0.3142987104978892  1.0000
  H   H11       1.0  0.5962769513755699  0.008022325320134277  0.4042805216952997  1.0000
  H   H12       1.0  0.40372304777177115  0.9919776750995768  0.5957194782845476  1.0000
  H   H13       1.0  0.7995206270288076  0.9860347163984293  0.20731713587231976  1.0000
  H   H14       1.0  0.20047937211853362  0.013965284021281424  0.7926828641075276  1.0000
  H   H15       1.0  0.7914829827642992  0.29187644515448824  0.7500855235347067  1.0000
  H   H16       1.0  0.208517016383042  0.7081235552652227  0.24991447644514064  1.0000
  H   H17       1.0  0.686713368858467  0.06582607142805416  0.6874078468782718  1.0000
  H   H18       1.0  0.3132866304350672  0.934173927877644  0.3125921530941346  1.0000
  H   H19       1.0  0.7105165717349329  0.8002399459298346  0.15472440456354003  1.0000
  H   H20       1.0  0.2894834287357685  0.19976005448307851  0.8452755954117666  1.0000
  H   H21       1.0  0.5818122499878713  0.5948570201421954  0.8603829340548078  1.0000
  H   H22       1.0  0.41818775062902314  0.4051429791567051  0.1396170659130579  1.0000
  H   H23       1.0  0.6199054154588737  0.5802285335915818  0.07730900893519942  1.0000
  H   H24       1.0  0.38009458368846755  0.4197714668281293  0.9226909910446479  1.0000
  H   H25       1.0  0.950101187710329  0.4299600021738425  0.09197048322427867  1.0000
  H   H26       1.0  0.04989881290656533  0.570039997125058  0.9080295167435871  1.0000
  H   H27       1.0  0.9100885365576019  0.21673594051256875  0.25304740869962855  1.0000
  H   H28       1.0  0.08991146273593222  0.7832640587931297  0.7469525912727778  1.0000
  B   B1        1.0  0.7170969965651823  0.8474058386731183  0.5171127134183612  1.0000
  B   B2        1.0  0.28290300405171204  0.1525941606257822  0.4828872865495046  1.0000
  C   C1        1.0  0.8931320303882911  0.7409612406720928  0.549865248912471  1.0000
  C   C2        1.0  0.10686796875905002  0.2590387597476182  0.4501347510673763  1.0000
  C   C3        1.0  0.21142055887593925  0.563047778274791  0.6152399620924922  1.0000
  C   C4        1.0  0.7885794415947621  0.43695222213812224  0.3847600378828145  1.0000
  C   C5        1.0  0.05089918922443288  0.5184174675866047  0.6642608160367403  1.0000
  C   C6        1.0  0.9491008112462685  0.48158253282630853  0.3357391839385664  1.0000
  C   C7        1.0  0.21788188278551449  0.6929830492717268  0.533789173636703  1.0000
  C   C8        1.0  0.7821181176851869  0.3070169511411863  0.46621082633860367  1.0000
  C   C9        1.0  0.05790687926210489  0.7793906096522412  0.5009328138821071  1.0000
  C   C10       1.0  0.9420931213547895  0.22060938964665935  0.49906718608575873  1.0000
  C   C11       1.0  0.8935859340921177  0.6089818844509922  0.6319758548103923  1.0000
  C   C12       1.0  0.1064140652014166  0.391018114854706  0.3680241451620141  1.0000
  C   C13       1.0  0.6910394495526447  0.9371463035910551  0.861956711953947  1.0000
  C   C14       1.0  0.3089605497408895  0.06285369571464318  0.13804328801845941  1.0000
  C   C15       1.0  0.7209965472744061  0.9374083490378835  0.9830053414350304  1.0000
  C   C16       1.0  0.2790034533424883  0.06259165026101696  0.01699465853283539  1.0000
  C   C17       1.0  0.7145851283740656  0.06825721176036162  0.778880765251585  1.0000
  C   C18       1.0  0.2854148720966358  0.9317427886525514  0.2211192347237216  1.0000
  C   C19       1.0  0.8059668621739448  0.1972035135249343  0.9339263739820349  1.0000
  C   C20       1.0  0.19403313829675672  0.802796486887979  0.06607362599327174  1.0000
  C   C21       1.0  0.7706217162991058  0.19269819201670896  0.8136442819453944  1.0000
  C   C22       1.0  0.22937828417159553  0.8073018083962042  0.18635571802991224  1.0000
  C   C23       1.0  0.8174112595184282  0.0785886323076707  0.13698447862152385  1.0000
  C   C24       1.0  0.182588741098466  0.9214113669912297  0.863015521346342  1.0000
  C   C25       1.0  0.7800486410729003  0.06962615634917158  0.019681562352155835  1.0000
  C   C26       1.0  0.21995135939780117  0.9303738440637414  0.9803184376231509  1.0000
  C   C27       1.0  0.6187485867178905  0.6909847012283651  0.8974291222568376  1.0000
  C   C28       1.0  0.38125141242945076  0.30901529919134596  0.10257087772300967  1.0000
  C   C29       1.0  0.6924488323520454  0.8059862871392823  0.06093936116387165  1.0000
  C   C30       1.0  0.307551168118656  0.19401371327363082  0.9390606388114349  1.0000
  C   C31       1.0  0.8784180836049532  0.2077732599635511  0.1633641657514914  1.0000
  C   C32       1.0  0.12158191698438622  0.7922267391616344  0.83663583509384  1.0000
  C   C33       1.0  0.9000197611422402  0.327721546496305  0.0724985475888106  1.0000
  C   C34       1.0  0.09998023932846099  0.6722784539166081  0.9275014523864961  1.0000
  C   C35       1.0  0.6411114829842793  0.6827785736820675  0.018326813611701697  1.0000
  C   C36       1.0  0.35888851748642203  0.3172214267308457  0.9816731863636049  1.0000
  N   N1        1.0  0.6412700316925536  0.8139849100865137  0.82198007775299  1.0000
  N   N2        1.0  0.3587299687781477  0.1860150903263994  0.17801992222231655  1.0000
  N   N3        1.0  0.8645360933305564  0.324564513136562  0.9609546532914807  1.0000
  N   N4        1.0  0.13546390714014503  0.6754354872763512  0.03904534668382587  1.0000
  O   O1        1.0  0.5784827146567584  0.8609041500572635  0.5980657428654471  1.0000
  O   O2        1.0  0.4215172858139431  0.1390958503556496  0.4019342571098596  1.0000
  O   O3        1.0  0.7038892080064093  0.9314370313642555  0.4083636889196593  1.0000
  O   O4        1.0  0.29611079114093186  0.06856296905545534  0.591636311060188  1.0000
  Br  Br1       1.0  0.4277992440824843  0.4439354486370642  0.6640885409238412  1.0000
  Br  Br2       1.0  0.5722007550648569  0.5560645517826468  0.3359114590560062  1.0000
