data_image0
_chemical_formula_structural       H24C24N8F6I6
_chemical_formula_sum              "H24 C24 N8 F6 I6"
_cell_length_a       5.825168651385051
_cell_length_b       24.517772544730157
_cell_length_c       6.158500090654239
_cell_angle_alpha    90.0
_cell_angle_beta     98.77751148857374
_cell_angle_gamma    90.0

_space_group_name_H-M_alt    "P 1"
_space_group_IT_number       1

loop_
  _space_group_symop_operation_xyz
  'x, y, z'

loop_
  _atom_site_type_symbol
  _atom_site_label
  _atom_site_symmetry_multiplicity
  _atom_site_fract_x
  _atom_site_fract_y
  _atom_site_fract_z
  _atom_site_occupancy
  H   H1        1.0  0.9691937022548858  0.9509923023171035  0.8564793937665678  1.0000
  H   H2        1.0  0.9691937022548858  0.04900769789783627  0.8564793937665678  1.0000
  H   H3        1.0  0.019261815752103607  0.9143192298200156  0.11006646563548933  1.0000
  H   H4        1.0  0.019261815752103607  0.08568077039492417  0.11006646563548933  1.0000
  H   H5        1.0  0.4632272303106198  0.9514300219337782  0.2713414148974769  1.0000
  H   H6        1.0  0.4632272303106198  0.04856997787329405  0.2713414148974769  1.0000
  H   H7        1.0  0.7274925459631904  0.9143219062458565  0.34973583519504325  1.0000
  H   H8        1.0  0.7274925459631904  0.08567809356121588  0.34973583519504325  1.0000
  H   H9        1.0  0.6141022698809903  0.0  0.7529058757320419  1.0000
  H   H10       1.0  0.39755088815675427  0.0  0.9343559063366853  1.0000
  H   H11       1.0  0.08580572911323135  0.9633833749337429  0.45234199175022993  1.0000
  H   H12       1.0  0.08580572911323135  0.036616624873329444  0.45234199175022993  1.0000
  H   H13       1.0  0.6018512389895082  0.5366704791797317  0.2745059241729157  1.0000
  H   H14       1.0  0.6018512389895082  0.4633295206273408  0.2745059241729157  1.0000
  H   H15       1.0  0.18119866093777365  0.45130089610763946  0.12993735945726853  1.0000
  H   H16       1.0  0.18119866093777365  0.5486991041073003  0.12993735945726853  1.0000
  H   H17       1.0  0.9350709626088981  0.4144522689188623  0.19381870374459645  1.0000
  H   H18       1.0  0.9350709626088981  0.5855477312960775  0.19381870374459645  1.0000
  H   H19       1.0  0.5804776534632846  0.5856127894083953  0.9368738203917361  1.0000
  H   H20       1.0  0.5804776534632846  0.41438721039867693  0.9368738203917361  1.0000
  H   H21       1.0  0.5626085820046686  0.5495415121997287  0.6830708795806536  1.0000
  H   H22       1.0  0.5626085820046686  0.45045848801521104  0.6830708795806536  1.0000
  H   H23       1.0  0.162074315127017  0.49999999990353616  0.7983151796902747  1.0000
  H   H24       1.0  0.9050816682384574  0.49999999990353616  0.5985833306883189  1.0000
  C   C1        1.0  0.2946343472286275  0.6965710249102878  0.568287586175943  1.0000
  C   C2        1.0  0.2946343472286275  0.30342897530465196  0.568287586175943  1.0000
  C   C3        1.0  0.429585396626628  0.6855859511435484  0.40527650920126795  1.0000
  C   C4        1.0  0.429585396626628  0.3144140490713914  0.40527650920126795  1.0000
  C   C5        1.0  0.5797236373153232  0.723867699956074  0.33503488532132164  1.0000
  C   C6        1.0  0.5797236373153232  0.27613230025886565  0.33503488532132164  1.0000
  C   C7        1.0  0.5940709094656317  0.7747726056820333  0.43822417909313255  1.0000
  C   C8        1.0  0.5940709094656317  0.225227394125039  0.43822417909313255  1.0000
  C   C9        1.0  0.46415519400495353  0.7882557342736253  0.6027790044562132  1.0000
  C   C10       1.0  0.46415519400495353  0.21174426553344705  0.6027790044562132  1.0000
  C   C11       1.0  0.31475656129900603  0.7484167938389672  0.6620175450791611  1.0000
  C   C12       1.0  0.31475656129900603  0.25158320596810513  0.6620175450791611  1.0000
  C   C13       1.0  0.9411308611080573  0.9513086373343179  0.029056249381714357  1.0000
  C   C14       1.0  0.9411308611080573  0.04869136288062171  0.029056249381714357  1.0000
  C   C15       1.0  0.6509544208664106  0.9512176902470191  0.2674148645888629  1.0000
  C   C16       1.0  0.6509544208664106  0.0487823099679206  0.2674148645888629  1.0000
  C   C17       1.0  0.5843158301179333  0.0  0.9251663409409988  1.0000
  C   C18       1.0  0.005846692411668299  0.0  0.36910503186368077  1.0000
  C   C19       1.0  0.6599937608072812  0.49999999990353616  0.19537281658949757  1.0000
  C   C20       1.0  0.9911686219842494  0.4513305961955521  0.11530361115110611  1.0000
  C   C21       1.0  0.9911686219842494  0.5486694036115203  0.11530361115110611  1.0000
  C   C22       1.0  0.6375403092599693  0.5488602945250998  0.8580638667683006  1.0000
  C   C23       1.0  0.6375403092599693  0.4511397052819725  0.8580638667683006  1.0000
  C   C24       1.0  0.9713067314137145  0.49999999990353616  0.7752664557455117  1.0000
  N   N1        1.0  0.6882970011228912  0.9503774972824087  0.03482413435433666  1.0000
  N   N2        1.0  0.6882970011228912  0.049622502524663596  0.03482413435433666  1.0000
  N   N3        1.0  0.05196954767100706  0.0  0.1396378203846422  1.0000
  N   N4        1.0  0.7556120287122563  0.0  0.38304365420434094  1.0000
  N   N5        1.0  0.9155277422448604  0.49999999990353616  0.22402476967301713  1.0000
  N   N6        1.0  0.5546346589739605  0.49999999990353616  0.9618767627641013  1.0000
  N   N7        1.0  0.8933316236666272  0.5496970022628266  0.8782956660673482  1.0000
  N   N8        1.0  0.8933316236666272  0.45030299754424574  0.8782956660673482  1.0000
  F   F1        1.0  0.4168410375966469  0.6349550813230835  0.31211844113341397  1.0000
  F   F2        1.0  0.4168410375966469  0.36504491889185625  0.31211844113341397  1.0000
  F   F3        1.0  0.745486753451765  0.8121568875668496  0.3791220481930018  1.0000
  F   F4        1.0  0.745486753451765  0.18784311264809023  0.3791220481930018  1.0000
  F   F5        1.0  0.18870087193859916  0.7601358996213461  0.8245918815101242  1.0000
  F   F6        1.0  0.18870087193859916  0.23986410018572613  0.8245918815101242  1.0000
  I   I1        1.0  0.09383811333358899  0.6346260775367369  0.6925363002020518  1.0000
  I   I2        1.0  0.09383811333358899  0.3653739222703354  0.6925363002020518  1.0000
  I   I3        1.0  0.7830785794401075  0.70506430869535  0.09271225152406766  1.0000
  I   I4        1.0  0.7830785794401075  0.2949356911117223  0.09271225152406766  1.0000
  I   I5        1.0  0.5309695702864405  0.8612878499249661  0.7883822156471669  1.0000
  I   I6        1.0  0.5309695702864405  0.13871214988210628  0.7883822156471669  1.0000
