data_image0
_chemical_formula_structural       H96C156N24O16S4
_chemical_formula_sum              "H96 C156 N24 O16 S4"
_cell_length_a       9.49015622818554
_cell_length_b       17.796503007722976
_cell_length_c       17.662101668185496
_cell_angle_alpha    90.0
_cell_angle_beta     90.47716849812194
_cell_angle_gamma    90.0

_space_group_name_H-M_alt    "P 1"
_space_group_IT_number       1

loop_
  _space_group_symop_operation_xyz
  'x, y, z'

loop_
  _atom_site_type_symbol
  _atom_site_label
  _atom_site_symmetry_multiplicity
  _atom_site_fract_x
  _atom_site_fract_y
  _atom_site_fract_z
  _atom_site_occupancy
  H   H1        1.0  0.006494545924474089  0.14808527770070004  0.3109457718326454  1.0000
  H   H2        1.0  0.4935054541136766  0.6480852780456281  0.18905422823724313  1.0000
  H   H3        1.0  0.9935054541518271  0.8519147218653398  0.6890542283071315  1.0000
  H   H4        1.0  0.5064945459626247  0.35191472208231983  0.8109457719025338  1.0000
  H   H5        1.0  0.21738160161426137  0.09136074313557126  0.3708258024841572  1.0000
  H   H6        1.0  0.28261839842388925  0.5913607434804993  0.1291741975857313  1.0000
  H   H7        1.0  0.7826183984620398  0.9086392569923766  0.6291741976556198  1.0000
  H   H8        1.0  0.7173816016524119  0.4086392566474486  0.8708258025540457  1.0000
  H   H9        1.0  0.3099286548259874  0.14226366994129697  0.49301059734528835  1.0000
  H   H10       1.0  0.19007134521216312  0.6422636697243169  0.006989402724600072  1.0000
  H   H11       1.0  0.6900713452503138  0.857736330186651  0.5069894027944886  1.0000
  H   H12       1.0  0.809928654864138  0.35773633040363106  0.9930105974151768  1.0000
  H   H13       1.0  0.19895734633323284  0.25108737362957534  0.5513955886067254  1.0000
  H   H14       1.0  0.3010426539760289  0.7510873734125952  0.9486044114753006  1.0000
  H   H15       1.0  0.8010426537430683  0.7489126264983725  0.4486044115330515  1.0000
  H   H16       1.0  0.6989573461002723  0.24891262615344453  0.051395588664476397  1.0000
  H   H17       1.0  0.11148801837627324  0.3354144826885148  0.5988181942494691  1.0000
  H   H18       1.0  0.3885119808793402  0.8354144830334429  0.9011818058196023  1.0000
  H   H19       1.0  0.8885119817000279  0.6645855174394331  0.40118180589030783  1.0000
  H   H20       1.0  0.611488019196961  0.16458551709450506  0.09881819432017473  1.0000
  H   H21       1.0  0.016501978199490216  0.45222140026653024  0.6493567560952002  1.0000
  H   H22       1.0  0.4834980221097716  0.95222140004955  0.8506432439868258  1.0000
  H   H23       1.0  0.9834980218768109  0.5477785998614177  0.35064324404457675  1.0000
  H   H24       1.0  0.516501977981865  0.047778599516489675  0.14935675558689573  1.0000
  H   H25       1.0  0.830019748737832  0.5224830606307811  0.5789155038531884  1.0000
  H   H26       1.0  0.669980250338307  0.022483060285853007  0.9210844957774669  1.0000
  H   H27       1.0  0.16998025030015634  0.47751693949716684  0.4210844957075786  1.0000
  H   H28       1.0  0.33001974973799425  0.9775169392801867  0.07891550436230989  1.0000
  H   H29       1.0  0.7354845114804607  0.47136572765782436  0.457788793128739  1.0000
  H   H30       1.0  0.7645154883628799  0.9713657274408442  0.04221120706878892  1.0000
  H   H31       1.0  0.26451548859584045  0.5286342724701235  0.542211207011038  1.0000
  H   H32       1.0  0.23548451171342133  0.028634272687103658  0.9577887930709882  1.0000
  H   H33       1.0  0.529445591437578  0.45867311889631796  0.07963636717763078  1.0000
  H   H34       1.0  0.9705544084057623  0.9586731186793379  0.42036363301989715  1.0000
  H   H35       1.0  0.47055440863872317  0.54132688123163  0.9203636329621461  1.0000
  H   H36       1.0  0.029445591670538715  0.04132688088670193  0.5796363671198798  1.0000
  H   H37       1.0  0.7023554780093403  0.43525315994038555  0.18060287630884092  1.0000
  H   H38       1.0  0.7976445218493357  0.9352531597234054  0.31939712332263154  1.0000
  H   H39       1.0  0.2976445220822963  0.5647468401875624  0.8193971232648806  1.0000
  H   H40       1.0  0.202355478242301  0.06474683984263435  0.68060287625109  1.0000
  H   H41       1.0  0.22652591351735066  0.2668347010611716  0.01835400273040243  1.0000
  H   H42       1.0  0.2734740865207999  0.7668347014060996  0.481645997339486  1.0000
  H   H43       1.0  0.7734740865589506  0.7331652990667763  0.9816459974093744  1.0000
  H   H44       1.0  0.7265259135555013  0.23316529872184838  0.5183540028002909  1.0000
  H   H45       1.0  0.06084599922216648  0.3065609905290066  0.9155798922693242  1.0000
  H   H46       1.0  0.43915400003344696  0.8065609903120265  0.5844201077997472  1.0000
  H   H47       1.0  0.9391539998004862  0.6934390095989413  0.08442010785749823  1.0000
  H   H48       1.0  0.5608460000428542  0.19343900981592144  0.41557989234002973  1.0000
  H   H49       1.0  0.15994816054575514  0.5309417864790374  0.9438803459834123  1.0000
  H   H50       1.0  0.34005183976350667  0.030941786134109455  0.5561196540986136  1.0000
  H   H51       1.0  0.8400518395305461  0.4690582136489105  0.05611965415636458  1.0000
  H   H52       1.0  0.6599481603127945  0.9690582139938385  0.44388034604116333  1.0000
  H   H53       1.0  0.33015826758767514  0.5017911095300397  0.049097313608802234  1.0000
  H   H54       1.0  0.16984173245047546  0.0017911091851116653  0.4509026864610863  1.0000
  H   H55       1.0  0.6698417314349776  0.49820889059790824  0.95090268651802  1.0000
  H   H56       1.0  0.8301582676258258  0.9982088903809282  0.5490973136786906  1.0000
  H   H57       1.0  0.705516219831823  0.11980310677186208  0.29360773989908356  1.0000
  H   H58       1.0  0.7944837800115175  0.6198031071167901  0.20639226029844437  1.0000
  H   H59       1.0  0.29448378024447813  0.8801968933560859  0.7063922602406933  1.0000
  H   H60       1.0  0.20551622006478368  0.3801968930111578  0.7936077398413325  1.0000
  H   H61       1.0  0.7664673121688029  0.022906662607990593  0.1955667674116719  1.0000
  H   H62       1.0  0.7335326876745376  0.5229066623910105  0.30443323278585604  1.0000
  H   H63       1.0  0.2335326879074983  0.9770933375199573  0.8044332327281051  1.0000
  H   H64       1.0  0.26646731240176347  0.47709333773693746  0.6955667673539209  1.0000
  H   H65       1.0  0.9101256641874734  0.06043003164909985  0.08418646556598519  1.0000
  H   H66       1.0  0.5898743356558671  0.5604300314321197  0.4158135346315427  1.0000
  H   H67       1.0  0.08987433588882775  0.9395699684788481  0.9158135345737917  1.0000
  H   H68       1.0  0.4101256644204341  0.4395699686958282  0.5841864655082343  1.0000
  H   H69       1.0  0.993270687791132  0.19111038435607597  0.07023578536730836  1.0000
  H   H70       1.0  0.5067293120522084  0.691110384701004  0.4297642148302196  1.0000
  H   H71       1.0  0.006729312285169098  0.8088896152099637  0.9297642147724686  1.0000
  H   H72       1.0  0.49327068802409263  0.30888961542694393  0.5702357853095574  1.0000
  H   H73       1.0  0.933082945785318  0.2873077732058444  0.16819218864562685  1.0000
  H   H74       1.0  0.566917054073358  0.7873077735507724  0.3318078109858456  1.0000
  H   H75       1.0  0.06691705430631867  0.7126922263601955  0.8318078109280945  1.0000
  H   H76       1.0  0.4330829460029432  0.2126922265771755  0.6681921891539313  1.0000
  H   H77       1.0  0.99499932126736  0.5557143549891926  0.12855578184949668  1.0000
  H   H78       1.0  0.5050006785759805  0.055714354644264635  0.3714442183480312  1.0000
  H   H79       1.0  0.005000678808941075  0.44428564513875524  0.8714442182902803  1.0000
  H   H80       1.0  0.4949993215003207  0.9442856454836833  0.6285557817917456  1.0000
  H   H81       1.0  0.46651551395508756  0.4948318181486794  0.33867357875673204  1.0000
  H   H82       1.0  0.03348448608306306  0.9948318184936074  0.16132642131315642  1.0000
  H   H83       1.0  0.5334844861212137  0.5051681814173604  0.661326421383045  1.0000
  H   H84       1.0  0.9665155139932381  0.005168181634340537  0.8386735788266205  1.0000
  H   H85       1.0  0.2987924346162563  0.5383038260855345  0.2379388041194636  1.0000
  H   H86       1.0  0.2012075654218943  0.038303825740606486  0.2620611959504249  1.0000
  H   H87       1.0  0.7012075654600449  0.46169617404241337  0.7620611960203133  1.0000
  H   H88       1.0  0.798792434654407  0.9616961743873415  0.7379388041893521  1.0000
  H   H89       1.0  0.05838167386796432  0.33536047713475053  0.26361451582846795  1.0000
  H   H90       1.0  0.4416183251318734  0.8353604774796786  0.2363854836624104  1.0000
  H   H91       1.0  0.941618325170024  0.6646395229931974  0.736385483732299  1.0000
  H   H92       1.0  0.5583816739061148  0.16463952264826934  0.7636145158983565  1.0000
  H   H93       1.0  0.23098592128711454  0.29032349769827476  0.3630080832542983  1.0000
  H   H94       1.0  0.26901407875103606  0.7903234974812946  0.1369919168155902  1.0000
  H   H95       1.0  0.7690140787891866  0.7096765024296732  0.6369919168854786  1.0000
  H   H96       1.0  0.7309859213252652  0.20967650208474517  0.8630080833241867  1.0000
  C   C1        1.0  0.8680849755426635  0.2750737854440062  0.36091039894588306  1.0000
  C   C2        1.0  0.6319150243160124  0.7750737852270261  0.13908960068558945  1.0000
  C   C3        1.0  0.13191502453363765  0.7249262146839418  0.639089601193894  1.0000
  C   C4        1.0  0.3680849757756242  0.22492621490092185  0.860910398888132  1.0000
  C   C5        1.0  0.9816680363700602  0.2345519070903178  0.39589875630875815  1.0000
  C   C6        1.0  0.5183319634732804  0.7345519074352458  0.10410124388876972  1.0000
  C   C7        1.0  0.01833196370624107  0.765448092475722  0.6041012438310187  1.0000
  C   C8        1.0  0.4816680366030208  0.26544809269270214  0.8958987562510072  1.0000
  C   C9        1.0  0.046644753624977976  0.17062686296753093  0.3640838081240528  1.0000
  C   C10       1.0  0.4533552464131726  0.6706268633124589  0.13591619194583565  1.0000
  C   C11       1.0  0.9533552464513232  0.829373137160417  0.6359161920157241  1.0000
  C   C12       1.0  0.546644753678464  0.32937313681548896  0.8640838076278857  1.0000
  C   C13       1.0  0.16364516197591694  0.13799663838082432  0.39812537139528736  1.0000
  C   C14       1.0  0.3363548370085853  0.6379966381638442  0.10187462866164648  1.0000
  C   C15       1.0  0.8363548370467357  0.8620033617471236  0.601874628731535  1.0000
  C   C16       1.0  0.6636451620294029  0.3620033614021955  0.8981253708991205  1.0000
  C   C17       1.0  0.21702531433243596  0.1670694365465916  0.4663258634649235  1.0000
  C   C18       1.0  0.2829746857057146  0.6670694368915195  0.03367413660496501  1.0000
  C   C19       1.0  0.7829746857438652  0.8329305635813563  0.5336741366748535  1.0000
  C   C20       1.0  0.7170253143705865  0.33293056323642833  0.9663258635348119  1.0000
  C   C21       1.0  0.15381050890672116  0.22899315490416808  0.499135140427943  1.0000
  C   C22       1.0  0.34618949007778105  0.7289931552490961  0.000864859628990842  1.0000
  C   C23       1.0  0.8461894901159316  0.7710068452237798  0.5008648596988794  1.0000
  C   C24       1.0  0.6538105089448717  0.27100684487885185  0.9991351404978317  1.0000
  C   C25       1.0  0.03707400469716673  0.2653616144672141  0.4653012665202711  1.0000
  C   C26       1.0  0.4629259953409839  0.7653616148121422  0.03469873354961734  1.0000
  C   C27       1.0  0.9629259953791345  0.7346383850988257  0.5346987336195058  1.0000
  C   C28       1.0  0.5370740047353173  0.23463838531580578  0.9653012665901597  1.0000
  C   C29       1.0  0.9789314037457659  0.33409926418801267  0.4977973065340857  1.0000
  C   C30       1.0  0.5210685960975745  0.8340992639710326  0.0022026936634422256  1.0000
  C   C31       1.0  0.021068596330535243  0.6659007359399353  0.5022026936056913  1.0000
  C   C32       1.0  0.47893140397872663  0.16590073615691536  0.9977973064763346  1.0000
  C   C33       1.0  0.028897770272308138  0.36407610344505603  0.5670340332606385  1.0000
  C   C34       1.0  0.47110222898330534  0.864076103789984  0.932965966808433  1.0000
  C   C35       1.0  0.9711022298039931  0.635923896682892  0.4329659668791385  1.0000
  C   C36       1.0  0.5288977710929958  0.1359238963379639  0.067034033331344  1.0000
  C   C37       1.0  0.9750731857335758  0.4302794120101552  0.5961006477319253  1.0000
  C   C38       1.0  0.5249268143962114  0.9302794117931752  0.9038993519116846  1.0000
  C   C39       1.0  0.024926814358060777  0.5697205881177927  0.40389935184179615  1.0000
  C   C40       1.0  0.4750731856954252  0.06972058833477283  0.09610064766203684  1.0000
  C   C41       1.0  0.8692874927085272  0.4695867731078063  0.5568171780001546  1.0000
  C   C42       1.0  0.63071250742126  0.9695867728908262  0.9431828216434553  1.0000
  C   C43       1.0  0.13071250738310933  0.5304132270201416  0.4431828215735668  1.0000
  C   C44       1.0  0.3692874926703767  0.030413226675213633  0.056817177930266166  1.0000
  C   C45       1.0  0.8175382531261935  0.44186992560209437  0.48905589956101875  1.0000
  C   C46       1.0  0.6824617467171469  0.9418699253851142  0.010944100636509163  1.0000
  C   C47       1.0  0.1824617469501076  0.5581300745258535  0.5109441005787582  1.0000
  C   C48       1.0  0.3175382533591542  0.05813007418092549  0.9890558995032678  1.0000
  C   C49       1.0  0.8703853296766458  0.37440226920471403  0.4588440981289296  1.0000
  C   C50       1.0  0.6296146701820302  0.8744022689877339  0.04115590150254286  1.0000
  C   C51       1.0  0.12961467041499086  0.6255977309232339  0.5411559014447919  1.0000
  C   C52       1.0  0.37038532990960643  0.125597731140214  0.9588440980711787  1.0000
  C   C53       1.0  0.8192173822240811  0.3439156477732703  0.38869500652781  1.0000
  C   C54       1.0  0.6807826176192594  0.8439156481181983  0.11130499366971791  1.0000
  C   C55       1.0  0.18078261785222  0.6560843517927695  0.6113049936119669  1.0000
  C   C56       1.0  0.31921738245704184  0.1560843520097496  0.8886950064700591  1.0000
  C   C57       1.0  0.7062941435766386  0.3253147468065834  0.2840457916254808  1.0000
  C   C58       1.0  0.7937058562820375  0.8253147465896034  0.21595420800599166  1.0000
  C   C59       1.0  0.2937058565149982  0.6746852533213645  0.7159542079482406  1.0000
  C   C60       1.0  0.20629414379426367  0.1746852535383446  0.7840457921337853  1.0000
  C   C61       1.0  0.6074980500546983  0.3342138170301702  0.220374862013428  1.0000
  C   C62       1.0  0.8925019497886423  0.8342138173750983  0.2796251381840999  1.0000
  C   C63       1.0  0.392501950021603  0.6657861825358695  0.7796251381263489  1.0000
  C   C64       1.0  0.10749805028765888  0.16578618275284968  0.720374861955677  1.0000
  C   C65       1.0  0.4929030307831575  0.2838176886665927  0.20812523133374858  1.0000
  C   C66       1.0  0.007096969254993073  0.7838176884496125  0.2918747687361399  1.0000
  C   C67       1.0  0.5070969692931436  0.7161823114613551  0.7918747688060284  1.0000
  C   C68       1.0  0.9929030308213082  0.21618231167833532  0.7081252314036371  1.0000
  C   C69       1.0  0.38817173604923194  0.2985860333175584  0.14979624053204885  1.0000
  C   C70       1.0  0.11182826398891862  0.7985860331005783  0.3502037595378396  1.0000
  C   C71       1.0  0.6118282640270692  0.7014139668103896  0.850203759607728  1.0000
  C   C72       1.0  0.8881717360873824  0.2014139664654615  0.6497962406019373  1.0000
  C   C73       1.0  0.39881202632009743  0.36321496460259073  0.10224378801567106  1.0000
  C   C74       1.0  0.10118797371805312  0.8632149643856106  0.39775621205421746  1.0000
  C   C75       1.0  0.6011879737562037  0.6367850355253571  0.8977562121241058  1.0000
  C   C76       1.0  0.8988120263582482  0.13678503574233727  0.6022437880855596  1.0000
  C   C77       1.0  0.5136042547050117  0.41000310605030416  0.11597391746088846  1.0000
  C   C78       1.0  0.9863957451536645  0.9100031063952322  0.384026082170584  1.0000
  C   C79       1.0  0.48639574538662494  0.5899968935157356  0.884026082112833  1.0000
  C   C80       1.0  0.01360425492263682  0.0899968937327157  0.6159739179691929  1.0000
  C   C81       1.0  0.6143248117257297  0.3965711413605971  0.17348277167569615  1.0000
  C   C82       1.0  0.8856751881329464  0.896571141143617  0.3265172279557763  1.0000
  C   C83       1.0  0.38567518836590703  0.6034288587673508  0.8265172278980253  1.0000
  C   C84       1.0  0.11432481194335486  0.1034288589843309  0.6734827721840007  1.0000
  C   C85       1.0  0.29566434765023425  0.38110326826887  0.04239525734768908  1.0000
  C   C86       1.0  0.20433565238791634  0.8811032680518899  0.4576047427221993  1.0000
  C   C87       1.0  0.704335652426067  0.618896731859078  0.9576047427920878  1.0000
  C   C88       1.0  0.7956643477037203  0.11889673207605805  0.5423952568515221  1.0000
  C   C89       1.0  0.2157523852154153  0.3260335829731296  0.0043187389380094175  1.0000
  C   C90       1.0  0.2842476148227353  0.8260335827561495  0.49568126113187905  1.0000
  C   C91       1.0  0.7842476148608859  0.6739664171548182  0.9956812612017676  1.0000
  C   C92       1.0  0.715752385253566  0.17396641737179838  0.5043187390078978  1.0000
  C   C93       1.0  0.12289701576091962  0.34773539483090854  0.9470985705518987  1.0000
  C   C94       1.0  0.37710298454834223  0.8477353946139284  0.5529014295301273  1.0000
  C   C95       1.0  0.8771029843153816  0.6522646052970393  0.05290142958787829  1.0000
  C   C96       1.0  0.622897015527959  0.15226460495211133  0.44709857060964964  1.0000
  C   C97       1.0  0.1797152846280554  0.47354078755488405  0.9630964899894935  1.0000
  C   C98       1.0  0.3202847156812064  0.973540787899812  0.5369035100925325  1.0000
  C   C99       1.0  0.8202847154482458  0.5264592125730638  0.036903510150283474  1.0000
  C   C100      1.0  0.6797152843950948  0.02645921222813584  0.46309649004724446  1.0000
  C   C101      1.0  0.27475370311931785  0.45636360056104935  0.020418343399351488  1.0000
  C   C102      1.0  0.22524629691883274  0.9563636009059774  0.47958165667053704  1.0000
  C   C103      1.0  0.7252462969569833  0.5436363990049905  0.9795816567404254  1.0000
  C   C104      1.0  0.7747537031574684  0.04363639922197059  0.52041834346924  1.0000
  C   C105      1.0  0.8188284087649046  0.20781514595283404  0.23666239634392733  1.0000
  C   C106      1.0  0.6811715910937713  0.7078151457358539  0.26333760328754513  1.0000
  C   C107      1.0  0.18117159131139654  0.7921848541751139  0.7633376037958496  1.0000
  C   C108      1.0  0.31882840794421685  0.29218485383018583  0.7366623962732218  1.0000
  C   C109      1.0  0.7694445455880952  0.13428034535565536  0.24488632237549154  1.0000
  C   C110      1.0  0.7305554542552455  0.6342803457005833  0.2551136778220364  1.0000
  C   C111      1.0  0.2305554544882061  0.8657196542103844  0.7551136777642854  1.0000
  C   C112      1.0  0.26944454582105576  0.36571965442736454  0.7448863223177405  1.0000
  C   C113      1.0  0.8029742365726  0.08084660673929163  0.19006648620054648  1.0000
  C   C114      1.0  0.6970257632707405  0.5808466065223115  0.30993351399698144  1.0000
  C   C115      1.0  0.19702576350370107  0.9191533933886563  0.8099335139392305  1.0000
  C   C116      1.0  0.3029742368055607  0.4191533936056364  0.6900664861427955  1.0000
  C   C117      1.0  0.8836921311746405  0.10154767536160053  0.12748163479271674  1.0000
  C   C118      1.0  0.6163078686840354  0.6015476751446204  0.3725183648387557  1.0000
  C   C119      1.0  0.11630786786334779  0.8984523247663474  0.8725183647680501  1.0000
  C   C120      1.0  0.3836921313922657  0.3984523249833275  0.6274816353010212  1.0000
  C   C121      1.0  0.9310076446310609  0.1753837997636679  0.11926558147378895  1.0000
  C   C122      1.0  0.5689923552276149  0.6753837995466878  0.3807344181576835  1.0000
  C   C123      1.0  0.06899235546057568  0.82461620036428  0.8807344180999325  1.0000
  C   C124      1.0  0.4310076448640216  0.324616200019352  0.6192655814160379  1.0000
  C   C125      1.0  0.8979372329115215  0.2291775725955862  0.173827553215381  1.0000
  C   C126      1.0  0.6020627669471544  0.7291775723786061  0.32617244641609144  1.0000
  C   C127      1.0  0.10206276716477967  0.7708224275323617  0.826172446924396  1.0000
  C   C128      1.0  0.39793723314448215  0.27082242774934184  0.67382755315763  1.0000
  C   C129      1.0  0.35383132808429585  0.3915314771096441  0.35577857983124495  1.0000
  C   C130      1.0  0.14616867090020638  0.8915314774545721  0.14422142022568896  1.0000
  C   C131      1.0  0.6461686709383571  0.6084685224563956  0.6442214202955775  1.0000
  C   C132      1.0  0.8538313281224463  0.1084685226733758  0.8557785799011334  1.0000
  C   C133      1.0  0.37746255978011045  0.460599762011829  0.3211866935469245  1.0000
  C   C134      1.0  0.12253744025804016  0.9605997617948488  0.17881330652296398  1.0000
  C   C135      1.0  0.6225374402961907  0.5394002381161189  0.6788133065928526  1.0000
  C   C136      1.0  0.8774625598335964  0.03940023833309909  0.8211866930507576  1.0000
  C   C137      1.0  0.283710589927995  0.4842439363654869  0.26539614906485726  1.0000
  C   C138      1.0  0.21628941011015557  0.9842439367104149  0.23460385100503126  1.0000
  C   C139      1.0  0.716289410148306  0.515756063762461  0.7346038510749197  1.0000
  C   C140      1.0  0.7837105899661456  0.015756063417533002  0.7653961491347456  1.0000
  C   C141      1.0  0.16708607235204356  0.4396264983409817  0.24588033604760917  1.0000
  C   C142      1.0  0.33291392768610706  0.9396264981240016  0.2541196640222793  1.0000
  C   C143      1.0  0.8329139277395932  0.5603735017869662  0.7541196635261123  1.0000
  C   C144      1.0  0.6670860723901941  0.06037350144203819  0.7458803361174977  1.0000
  C   C145      1.0  0.1487076206370384  0.3693590261607828  0.2800414567134682  1.0000
  C   C146      1.0  0.3512923794011122  0.8693590259438027  0.2199585433564203  1.0000
  C   C147      1.0  0.8512923794392627  0.6306409739671651  0.7199585434263087  1.0000
  C   C148      1.0  0.648707620675189  0.1306409736222371  0.7800414567833567  1.0000
  C   C149      1.0  0.24324182644152448  0.34421298259223465  0.33496665062831477  1.0000
  C   C150      1.0  0.25675817361196157  0.8442129823752546  0.1650333488755183  1.0000
  C   C151      1.0  0.7567581736501121  0.6557870175357132  0.6650333489454068  1.0000
  C   C152      1.0  0.7432418264796751  0.15578701775269338  0.8349666506982032  1.0000
  C   C153      1.0  0.05917670886092169  0.4663623581778002  0.1898286873308988  1.0000
  C   C154      1.0  0.44082329117722885  0.96636235796082  0.3101713127389897  1.0000
  C   C155      1.0  0.9408232912153794  0.5336376419501477  0.8101713128088781  1.0000
  C   C156      1.0  0.5591767089144077  0.03363764160521971  0.6898286868347319  1.0000
  N   N1        1.0  0.7925149628588365  0.2631318101071789  0.29393744849222375  1.0000
  N   N2        1.0  0.7074850380381524  0.763131810452107  0.2060625517182588  1.0000
  N   N3        1.0  0.20748503721746475  0.7368681894588609  0.7060625516475532  1.0000
  N   N4        1.0  0.29251496203814875  0.23686818967584097  0.7939374484215181  1.0000
  N   N5        1.0  0.720829659994471  0.3747876061440568  0.3399033759143909  1.0000
  N   N6        1.0  0.7791703398642049  0.8747876064889848  0.16009662371708158  1.0000
  N   N7        1.0  0.2791703400971656  0.6252123939838912  0.6600966236593306  1.0000
  N   N8        1.0  0.22082965917378328  0.1252123936389631  0.8399033758436852  1.0000
  N   N9        1.0  0.4634244508242178  0.2221690777274723  0.2501595620941807  1.0000
  N   N10       1.0  0.03657554921393276  0.7221690780724003  0.2498404379757077  1.0000
  N   N11       1.0  0.5365755492520834  0.7778309224004757  0.7498404380455962  1.0000
  N   N12       1.0  0.9634244508623684  0.2778309220555476  0.7501595621640693  1.0000
  N   N13       1.0  0.28224961158392636  0.2475742429896475  0.14963605903420665  1.0000
  N   N14       1.0  0.21775038845422426  0.7475742427726674  0.3503639410356818  1.0000
  N   N15       1.0  0.7177503885077103  0.7524257571383004  0.8503639405395148  1.0000
  N   N16       1.0  0.782249611622077  0.25242575735528056  0.649636059104095  1.0000
  N   N17       1.0  0.10516267122899532  0.4200196873934277  0.9269935487518505  1.0000
  N   N18       1.0  0.39483732908026653  0.9200196871764476  0.5730064513301755  1.0000
  N   N19       1.0  0.8948373288473058  0.5799803127345202  0.07300645138792641  1.0000
  N   N20       1.0  0.6051626709960346  0.07998031238959216  0.42699354880960155  1.0000
  N   N21       1.0  0.442595060511625  0.3699077609316399  0.42001907773515235  1.0000
  N   N22       1.0  0.05740493952652554  0.8699077612765679  0.07998092233473614  1.0000
  N   N23       1.0  0.5574049395800116  0.6300922386343999  0.5799809218385692  1.0000
  N   N24       1.0  0.9425950605497757  0.13009223885138002  0.9200190778050408  1.0000
  O   O1        1.0  0.456128959665567  0.30187737263150005  0.43392360973953675  1.0000
  O   O2        1.0  0.04387104038791903  0.80187737241452  0.06607638976429626  1.0000
  O   O3        1.0  0.5438710404260696  0.6981226274964478  0.5660763898341847  1.0000
  O   O4        1.0  0.9561289597037176  0.19812262771342795  0.9339236098094252  1.0000
  O   O5        1.0  0.4954413884309555  0.42105065622994786  0.4584746874117657  1.0000
  O   O6        1.0  0.0045586116071950076  0.9210506565748758  0.04152531265812278  1.0000
  O   O7        1.0  0.5045586116453455  0.5789493433360919  0.5415253127280113  1.0000
  O   O8        1.0  0.9954413884691061  0.07894934355307198  0.9584746874816541  1.0000
  O   O9        1.0  0.07579926983900019  0.5374891547990627  0.17041438768358538  1.0000
  O   O10       1.0  0.4242007301991504  0.03748915501604288  0.3295856123863031  1.0000
  O   O11       1.0  0.9242007302526364  0.462510844766977  0.8295856118901361  1.0000
  O   O12       1.0  0.5757992698771508  0.9625108451119051  0.6704143877534738  1.0000
  O   O13       1.0  0.9640721318465879  0.42473340390074354  0.16579608192990697  1.0000
  O   O14       1.0  0.5359278680120881  0.9247334042456716  0.3342039177015655  1.0000
  O   O15       1.0  0.035927868245048754  0.5752665962272043  0.8342039176438145  1.0000
  O   O16       1.0  0.4640721320795485  0.07526659588227631  0.665796081872156  1.0000
  S   S1        1.0  0.31799163185369433  0.18866176678322533  0.21627398420023897  1.0000
  S   S2        1.0  0.18200836818445626  0.6886617671281534  0.2837260158696495  1.0000
  S   S3        1.0  0.6820083682226068  0.8113382333447225  0.783726015939538  1.0000
  S   S4        1.0  0.8179916318918449  0.3113382329997945  0.7162739842701275  1.0000
