data_image0
_chemical_formula_structural       H120C144N16O16
_chemical_formula_sum              "H120 C144 N16 O16"
_cell_length_a       5.722101448370542
_cell_length_b       13.147696790682978
_cell_length_c       37.74189403826131
_cell_angle_alpha    90.0
_cell_angle_beta     90.0
_cell_angle_gamma    90.0

_space_group_name_H-M_alt    "P 1"
_space_group_IT_number       1

loop_
  _space_group_symop_operation_xyz
  'x, y, z'

loop_
  _atom_site_type_symbol
  _atom_site_label
  _atom_site_symmetry_multiplicity
  _atom_site_fract_x
  _atom_site_fract_y
  _atom_site_fract_z
  _atom_site_occupancy
  H   H1        1.0  0.06538952924481084  0.9509542309235531  0.4179715518253499  1.0000
  H   H2        1.0  0.9346104710399549  0.04904576902450021  0.9179715518483839  1.0000
  H   H3        1.0  0.9346104710399549  0.4509542305692318  0.4179715518253499  1.0000
  H   H4        1.0  0.06538952924481084  0.5490457693788217  0.9179715518483839  1.0000
  H   H5        1.0  0.9312340209412763  0.09960393602383742  0.3820779427598731  1.0000
  H   H6        1.0  0.06876597934348949  0.9003960639242159  0.8820779425179495  1.0000
  H   H7        1.0  0.06876597934348949  0.5996039363781589  0.3820779427598731  1.0000
  H   H8        1.0  0.9312340209412763  0.40039606356989454  0.8820779425179495  1.0000
  H   H9        1.0  0.28079792266834913  0.9449825492480496  0.3611610121151182  1.0000
  H   H10       1.0  0.7192020776164166  0.055017450700003884  0.8611610121381521  1.0000
  H   H11       1.0  0.7192020776164166  0.4449825488937281  0.3611610121151182  1.0000
  H   H12       1.0  0.28079792266834913  0.5550174510543253  0.8611610121381521  1.0000
  H   H13       1.0  0.25251406725958364  0.5283737190321326  0.5058239321706143  1.0000
  H   H14       1.0  0.7474859330251821  0.47162628091592074  0.005823932147580318  1.0000
  H   H15       1.0  0.7474859330251821  0.02837371943840069  0.5058239321706143  1.0000
  H   H16       1.0  0.25251406725958364  0.9716262805096527  0.005823932147580318  1.0000
  H   H17       1.0  0.46941459780740014  0.5380443618849631  0.44969425680635183  1.0000
  H   H18       1.0  0.5305854024773655  0.4619556380630903  0.9496942568293859  1.0000
  H   H19       1.0  0.5305854024773655  0.038044361530641634  0.44969425680635183  1.0000
  H   H20       1.0  0.46941459780740014  0.9619556384174117  0.9496942568293859  1.0000
  H   H21       1.0  0.5816727787914021  0.3898261194791181  0.4863425768031646  1.0000
  H   H22       1.0  0.4183272197457539  0.6101738804689353  0.9863425768261986  1.0000
  H   H23       1.0  0.4183272197457539  0.8898261198334395  0.4863425768031646  1.0000
  H   H24       1.0  0.5816727787914021  0.11017388011461388  0.9863425768261986  1.0000
  H   H25       1.0  0.5419639913729785  0.09377827231867214  0.3533521631553595  1.0000
  H   H26       1.0  0.45803600891178725  0.9062217283899707  0.8533521631783936  1.0000
  H   H27       1.0  0.45803600891178725  0.5937782719124041  0.3533521631553595  1.0000
  H   H28       1.0  0.5419639913729785  0.40622172803564927  0.8533521631783936  1.0000
  H   H29       1.0  0.8643796487404939  0.3301634369204605  0.5292202744184312  1.0000
  H   H30       1.0  0.13562035154427185  0.6698365630275929  0.029220274660354727  1.0000
  H   H31       1.0  0.13562035154427185  0.8301634372747819  0.5292202744184312  1.0000
  H   H32       1.0  0.8643796487404939  0.16983656343386097  0.029220274660354727  1.0000
  H   H33       1.0  0.47299970551391274  0.7321958524950077  0.41438156294289896  1.0000
  H   H34       1.0  0.527000294770853  0.2678041474530457  0.9143815629659329  1.0000
  H   H35       1.0  0.527000294770853  0.23219585290127576  0.41438156294289896  1.0000
  H   H36       1.0  0.47299970551391274  0.7678041470467776  0.9143815629659329  1.0000
  H   H37       1.0  0.13880226646910857  0.6766357729137952  0.46972010419052884  1.0000
  H   H38       1.0  0.8611977320680475  0.3233642270342583  0.9697201042135629  1.0000
  H   H39       1.0  0.8611977320680475  0.17663577255947366  0.46972010419052884  1.0000
  H   H40       1.0  0.13880226646910857  0.8233642273885797  0.9697201042135629  1.0000
  H   H41       1.0  0.013594905770528121  0.7892828854521323  0.4412985528260807  1.0000
  H   H42       1.0  0.9864050945142375  0.21071711449592115  0.9412985528491147  1.0000
  H   H43       1.0  0.9864050945142375  0.2892828850978108  0.4412985528260807  1.0000
  H   H44       1.0  0.013594905770528121  0.7107171148502427  0.9412985528491147  1.0000
  H   H45       1.0  0.9830108624868535  0.8330805999239221  0.3397610442390702  1.0000
  H   H46       1.0  0.01698913605030248  0.16691940002413136  0.8397610442621042  1.0000
  H   H47       1.0  0.01698913605030248  0.33308060033019005  0.3397610442390702  1.0000
  H   H48       1.0  0.9830108624868535  0.6669193996178634  0.8397610442621042  1.0000
  H   H49       1.0  0.7418595490313842  0.6784809546506596  0.33171481344598547  1.0000
  H   H50       1.0  0.2581404512533816  0.32151904529739384  0.8317148132040618  1.0000
  H   H51       1.0  0.2581404512533816  0.1784809550569276  0.33171481344598547  1.0000
  H   H52       1.0  0.7418595490313842  0.8215190448911257  0.8317148132040618  1.0000
  H   H53       1.0  0.5255569701331271  0.7021896600583546  0.2751780700107771  1.0000
  H   H54       1.0  0.47444302840402897  0.29781033988969885  0.775178070033811  1.0000
  H   H55       1.0  0.47444302840402897  0.20218966046462264  0.2751780700107771  1.0000
  H   H56       1.0  0.5255569701331271  0.7978103402440203  0.775178070033811  1.0000
  H   H57       1.0  0.3763964042639129  0.8465797331048585  0.3113522190509903  1.0000
  H   H58       1.0  0.6236035960208528  0.15342026684319493  0.8113522190740243  1.0000
  H   H59       1.0  0.6236035960208528  0.3465797335111266  0.3113522190509903  1.0000
  H   H60       1.0  0.3763964042639129  0.6534202664369269  0.8113522190740243  1.0000
  H   H61       1.0  0.49080351254515836  0.5391327601213859  0.2513967057504118  1.0000
  H   H62       1.0  0.5091964877396074  0.4608672398266676  0.7513967057734459  1.0000
  H   H63       1.0  0.5091964877396074  0.03913276052765385  0.2513967057504118  1.0000
  H   H64       1.0  0.49080351254515836  0.9608672394203995  0.7513967057734459  1.0000
  H   H65       1.0  0.9593587407582986  0.4701103477211331  0.27909054588838683  1.0000
  H   H66       1.0  0.040641259526467015  0.5298896522269204  0.7790905459114208  1.0000
  H   H67       1.0  0.040641259526467015  0.9701103480754546  0.27909054588838683  1.0000
  H   H68       1.0  0.9593587407582986  0.0298896518725989  0.7790905459114208  1.0000
  H   H69       1.0  0.09577487832832135  0.1314773208966134  0.20710237440855492  1.0000
  H   H70       1.0  0.9042251219564443  0.86852267905144  0.7071023744315889  1.0000
  H   H71       1.0  0.9042251219564443  0.6314773204903453  0.20710237440855492  1.0000
  H   H72       1.0  0.09577487832832135  0.36852267945770806  0.7071023744315889  1.0000
  H   H73       1.0  0.9723195053775836  0.27763096366708834  0.24383332009439218  1.0000
  H   H74       1.0  0.027680494907182083  0.722369036280965  0.7438333198524686  1.0000
  H   H75       1.0  0.027680494907182083  0.7776309632608204  0.24383332009439218  1.0000
  H   H76       1.0  0.9723195053775836  0.22236903668723312  0.7438333198524686  1.0000
  H   H77       1.0  0.3793420650761308  0.07737115452197443  0.164030717264056  1.0000
  H   H78       1.0  0.620657935208635  0.9226288454260789  0.66403071728709  1.0000
  H   H79       1.0  0.620657935208635  0.5773711541157064  0.164030717264056  1.0000
  H   H80       1.0  0.3793420650761308  0.42262884583234706  0.66403071728709  1.0000
  H   H81       1.0  0.7557669920779699  0.2796037867716173  0.18782222409966168  1.0000
  H   H82       1.0  0.2442330082067957  0.7203962131764362  0.6878222241226957  1.0000
  H   H83       1.0  0.2442330082067957  0.7796037863653492  0.18782222409966168  1.0000
  H   H84       1.0  0.7557669920779699  0.2203962135827042  0.6878222241226957  1.0000
  H   H85       1.0  0.6303884058237366  0.4260389967290252  0.22412393536542508  1.0000
  H   H86       1.0  0.3696115944610291  0.5739610032190283  0.7241239351235016  1.0000
  H   H87       1.0  0.3696115944610291  0.9260389970833467  0.22412393536542508  1.0000
  H   H88       1.0  0.6303884058237366  0.07396100286470679  0.7241239351235016  1.0000
  H   H89       1.0  0.524059242405416  0.2888040719566026  0.13347116535522088  1.0000
  H   H90       1.0  0.4759407561317399  0.7111959279914508  0.6334711653782549  1.0000
  H   H91       1.0  0.4759407561317399  0.7888040715503346  0.13347116535522088  1.0000
  H   H92       1.0  0.524059242405416  0.21119592839771884  0.6334711653782549  1.0000
  H   H93       1.0  0.8053126410948591  0.1885988503900683  0.09827923358164559  1.0000
  H   H94       1.0  0.19468735744229682  0.8114011495579851  0.5982792336046796  1.0000
  H   H95       1.0  0.19468735744229682  0.6885988499838003  0.09827923358164559  1.0000
  H   H96       1.0  0.8053126410948591  0.31140114996425317  0.5982792336046796  1.0000
  H   H97       1.0  0.9801635554009858  0.464962951863331  0.19019817507628975  1.0000
  H   H98       1.0  0.019836444883780006  0.5350370480847225  0.6901981750993237  1.0000
  H   H99       1.0  0.019836444883780006  0.9649629522176524  0.19019817507628975  1.0000
  H   H100      1.0  0.9801635554009858  0.03503704773040103  0.6901981750993237  1.0000
  H   H101      1.0  0.4892188150206882  0.2719156531304741  0.003845281316641781  1.0000
  H   H102      1.0  0.5107811852640776  0.7280843468175794  0.5038452813396758  1.0000
  H   H103      1.0  0.5107811852640776  0.771915652724206  0.003845281316641781  1.0000
  H   H104      1.0  0.4892188150206882  0.22808434722384738  0.5038452813396758  1.0000
  H   H105      1.0  0.27498762896768997  0.36120880756585366  0.15986579009212748  1.0000
  H   H106      1.0  0.7250123713170757  0.6387911923821997  0.6598657901151614  1.0000
  H   H107      1.0  0.7250123713170757  0.8612088079201752  0.15986579009212748  1.0000
  H   H108      1.0  0.27498762896768997  0.13879119202787826  0.6598657901151614  1.0000
  H   H109      1.0  0.19253811732291687  0.3740631342734611  0.034378866590124485  1.0000
  H   H110      1.0  0.8074618829618488  0.6259368656745923  0.5343788666131585  1.0000
  H   H111      1.0  0.8074618829618488  0.8740631346277825  0.034378866590124485  1.0000
  H   H112      1.0  0.19253811732291687  0.12593686532027087  0.5343788666131585  1.0000
  H   H113      1.0  0.9921189026833169  0.47233227757433  0.06041881940764014  1.0000
  H   H114      1.0  0.007881097601448839  0.5276677223737234  0.5604188194306741  1.0000
  H   H115      1.0  0.007881097601448839  0.9723322771680619  0.06041881940764014  1.0000
  H   H116      1.0  0.9921189026833169  0.027667722779991456  0.5604188194306741  1.0000
  H   H117      1.0  0.7041625697054713  0.5692119896850193  0.09542526261000321  1.0000
  H   H118      1.0  0.2958374288316847  0.4307880102630342  0.5954252626330373  1.0000
  H   H119      1.0  0.2958374288316847  0.0692119893306978  0.09542526261000321  1.0000
  H   H120      1.0  0.7041625697054713  0.9307880106173556  0.5954252626330373  1.0000
  C   C1        1.0  0.5238835586974163  0.8633811754804188  0.3944470172829149  1.0000
  C   C2        1.0  0.47611644158734934  0.13661882446763457  0.8944470173059489  1.0000
  C   C3        1.0  0.47611644158734934  0.3633811758866869  0.3944470172829149  1.0000
  C   C4        1.0  0.5238835586974163  0.6366188240613666  0.8944470173059489  1.0000
  C   C5        1.0  0.8936978549124192  0.9509678629689869  0.4055492407053858  1.0000
  C   C6        1.0  0.10630214537234653  0.04903213697906644  0.9055492407284198  1.0000
  C   C7        1.0  0.10630214537234653  0.450967863375255  0.4055492407053858  1.0000
  C   C8        1.0  0.8936978549124192  0.5490321365727984  0.9055492407284198  1.0000
  C   C9        1.0  0.8199033995344487  0.03325716412245358  0.385560743328036  1.0000
  C   C10       1.0  0.18009660075031697  0.9667428358255999  0.8855607433510699  1.0000
  C   C11       1.0  0.18009660075031697  0.5332571637161856  0.385560743328036  1.0000
  C   C12       1.0  0.8199033995344487  0.4667428362318679  0.8855607433510699  1.0000
  C   C13       1.0  0.4519435286727436  0.9462831838970109  0.3737005439022676  1.0000
  C   C14       1.0  0.5480564716120221  0.05371681605104255  0.8737005439253016  1.0000
  C   C15       1.0  0.5480564716120221  0.4462831835426894  0.3737005439022676  1.0000
  C   C16       1.0  0.4519435286727436  0.5537168164053641  0.8737005439253016  1.0000
  C   C17       1.0  0.08004111149242621  0.5316058296197539  0.49360534135128503  1.0000
  C   C18       1.0  0.9199588887923396  0.4683941703282995  0.9936053413743189  1.0000
  C   C19       1.0  0.9199588887923396  0.03160582926543242  0.49360534135128503  1.0000
  C   C20       1.0  0.08004111149242621  0.968394170682621  0.9936053413743189  1.0000
  C   C21       1.0  0.6398053552585189  0.53638982190383  0.4626108817511888  1.0000
  C   C22       1.0  0.3601946450262468  0.4636101788048129  0.9626108817742229  1.0000
  C   C23       1.0  0.3601946450262468  0.036389821549508566  0.4626108817511888  1.0000
  C   C24       1.0  0.6398053552585189  0.9636101783985449  0.9626108817742229  1.0000
  C   C25       1.0  0.9268488994563809  0.449246574821047  0.49892468806442225  1.0000
  C   C26       1.0  0.07315110082838476  0.5507534251270064  0.9989246880874562  1.0000
  C   C27       1.0  0.07315110082838476  0.9492465751753685  0.49892468806442225  1.0000
  C   C28       1.0  0.9268488994563809  0.05075342477268496  0.9989246880874562  1.0000
  C   C29       1.0  0.704238298876635  0.45269349489545235  0.48305592855296686  1.0000
  C   C30       1.0  0.29576170140813063  0.547306505052601  0.9830559285760009  1.0000
  C   C31       1.0  0.29576170140813063  0.9526934952497738  0.48305592855296686  1.0000
  C   C32       1.0  0.704238298876635  0.04730650469827961  0.9830559285760009  1.0000
  C   C33       1.0  0.5989451342174222  0.02978035059931289  0.36949054400562964  1.0000
  C   C34       1.0  0.40105486606734353  0.9702196493487405  0.8694905440286637  1.0000
  C   C35       1.0  0.40105486606734353  0.5297803501930448  0.36949054400562964  1.0000
  C   C36       1.0  0.5989451342174222  0.4702196497550086  0.8694905440286637  1.0000
  C   C37       1.0  0.01424948696483159  0.6148043226649511  0.4733149126509219  1.0000
  C   C38       1.0  0.9857505133199341  0.3851956772831023  0.9733149126739559  1.0000
  C   C39       1.0  0.9857505133199341  0.11480432231062969  0.4733149126509219  1.0000
  C   C40       1.0  0.01424948696483159  0.8851956776374237  0.9733149126739559  1.0000
  C   C41       1.0  0.8345622955286619  0.7814808421259817  0.4312052533320539  1.0000
  C   C42       1.0  0.16543770475610386  0.21851915782207176  0.9312052533550877  1.0000
  C   C43       1.0  0.16543770475610386  0.2814808425322497  0.4312052533320539  1.0000
  C   C44       1.0  0.8345622955286619  0.7185191574158037  0.9312052533550877  1.0000
  C   C45       1.0  0.7911164107880491  0.6193303876440408  0.45755575177264074  1.0000
  C   C46       1.0  0.20888358774910695  0.38066961230401264  0.9575557517956748  1.0000
  C   C47       1.0  0.20888358774910695  0.11933038728971936  0.45755575177264074  1.0000
  C   C48       1.0  0.7911164107880491  0.8806696126583341  0.9575557517956748  1.0000
  C   C49       1.0  0.7496521634060729  0.865172827689549  0.41038721544546886  1.0000
  C   C50       1.0  0.2503478368786928  0.13482717225850446  0.9103872154685029  1.0000
  C   C51       1.0  0.2503478368786928  0.365172828095817  0.41038721544546886  1.0000
  C   C52       1.0  0.7496521634060729  0.6348271718522365  0.9103872154685029  1.0000
  C   C53       1.0  0.9947514634891533  0.6027845710296694  0.2986263007514718  1.0000
  C   C54       1.0  0.005248535048002735  0.397215428918384  0.7986263005095482  1.0000
  C   C55       1.0  0.005248535048002735  0.10278457067534795  0.2986263007514718  1.0000
  C   C56       1.0  0.9947514634891533  0.8972154292727055  0.7986263005095482  1.0000
  C   C57       1.0  0.04974018244312141  0.7707605979460368  0.3236075202696069  1.0000
  C   C58       1.0  0.9502598178416443  0.2292394020020167  0.8236075202926408  1.0000
  C   C59       1.0  0.9502598178416443  0.2707605975917153  0.3236075202696069  1.0000
  C   C60       1.0  0.04974018244312141  0.7292394023563381  0.8236075202926408  1.0000
  C   C61       1.0  0.9130231309491609  0.6841291020929267  0.31924289246812443  1.0000
  C   C62       1.0  0.08697686933560488  0.3158708978551267  0.8192428922262008  1.0000
  C   C63       1.0  0.08697686933560488  0.18412910173860528  0.31924289246812443  1.0000
  C   C64       1.0  0.9130231309491609  0.8158708982094481  0.8192428922262008  1.0000
  C   C65       1.0  0.35366858631566  0.6982418857199031  0.28755747973320245  1.0000
  C   C66       1.0  0.6463314139691057  0.30175811422815035  0.7875574797562365  1.0000
  C   C67       1.0  0.6463314139691057  0.1982418861261711  0.28755747973320245  1.0000
  C   C68       1.0  0.35366858631566  0.8017581138218823  0.7875574797562365  1.0000
  C   C69       1.0  0.21950535678770164  0.6094444006100146  0.28258917714060056  1.0000
  C   C70       1.0  0.7804946434970641  0.3905555993380388  0.7825891771636345  1.0000
  C   C71       1.0  0.7804946434970641  0.10944440025569314  0.28258917714060056  1.0000
  C   C72       1.0  0.21950535678770164  0.8905555996923603  0.7825891771636345  1.0000
  C   C73       1.0  0.27090366082926165  0.7785464460401714  0.3077212102346052  1.0000
  C   C74       1.0  0.7290963394555041  0.221453553907882  0.8077212102576392  1.0000
  C   C75       1.0  0.7290963394555041  0.27854644644643944  0.3077212102346052  1.0000
  C   C76       1.0  0.27090366082926165  0.721453553501614  0.8077212102576392  1.0000
  C   C77       1.0  0.31369240587496905  0.5274956260715328  0.2618418389384907  1.0000
  C   C78       1.0  0.6863075944097967  0.4725043738765206  0.7618418389615247  1.0000
  C   C79       1.0  0.6863075944097967  0.027495625717211352  0.2618418389384907  1.0000
  C   C80       1.0  0.31369240587496905  0.972504374230842  0.7618418389615247  1.0000
  C   C81       1.0  0.2873586749267158  0.36370963873982026  0.23605246946452457  1.0000
  C   C82       1.0  0.7126413236104403  0.6362903612082331  0.7360524694875585  1.0000
  C   C83       1.0  0.7126413236104403  0.8637096390941417  0.23605246946452457  1.0000
  C   C84       1.0  0.2873586749267158  0.13629036085391172  0.7360524694875585  1.0000
  C   C85       1.0  0.21346376694314467  0.1960311103178487  0.21042940404497706  1.0000
  C   C86       1.0  0.786536233341621  0.8039688896302047  0.7104294040680111  1.0000
  C   C87       1.0  0.786536233341621  0.6960311099115806  0.21042940404497706  1.0000
  C   C88       1.0  0.21346376694314467  0.30396889003647276  0.7104294040680111  1.0000
  C   C89       1.0  0.1428693334741207  0.2785104211252337  0.23097186461184793  1.0000
  C   C90       1.0  0.857130666810645  0.7214895788228197  0.7309718643699243  1.0000
  C   C91       1.0  0.857130666810645  0.7785104214795553  0.23097186461184793  1.0000
  C   C92       1.0  0.1428693334741207  0.22148957846849823  0.7309718643699243  1.0000
  C   C93       1.0  0.43580585078758566  0.1960724567231282  0.1944180549752302  1.0000
  C   C94       1.0  0.56419414949718  0.8039275432249251  0.6944180549982643  1.0000
  C   C95       1.0  0.56419414949718  0.6960724563168602  0.1944180549752302  1.0000
  C   C96       1.0  0.43580585078758566  0.30392754363119323  0.6944180549982643  1.0000
  C   C97       1.0  0.5827648024222973  0.2804710131901699  0.1999131554540178  1.0000
  C   C98       1.0  0.4172351978624684  0.7195289867578836  0.6999131554770518  1.0000
  C   C99       1.0  0.4172351978624684  0.7804710135444913  0.1999131554540178  1.0000
  C   C100      1.0  0.5827648024222973  0.21952898640356208  0.6999131554770518  1.0000
  C   C101      1.0  0.5107568497989942  0.3624997956583102  0.22032549165577275  1.0000
  C   C102      1.0  0.4892431504857715  0.6375002042897432  0.7203254916788068  1.0000
  C   C103      1.0  0.4892431504857715  0.8624997960126316  0.22032549165577275  1.0000
  C   C104      1.0  0.5107568497989942  0.1375002046960113  0.7203254916788068  1.0000
  C   C105      1.0  0.3320076753516827  0.34309904326335405  0.08717837972478121  1.0000
  C   C106      1.0  0.667992324933083  0.6569009566846994  0.5871783797478152  1.0000
  C   C107      1.0  0.667992324933083  0.8430990436176755  0.08717837972478121  1.0000
  C   C108      1.0  0.3320076753516827  0.15690095633037793  0.5871783797478152  1.0000
  C   C109      1.0  0.5079877779566011  0.2882797512250137  0.10477888618920457  1.0000
  C   C110      1.0  0.49201222232816466  0.7117202487230397  0.6047788862122386  1.0000
  C   C111      1.0  0.49201222232816466  0.7882797508187457  0.10477888618920457  1.0000
  C   C112      1.0  0.5079877779566011  0.21172024912930776  0.6047788862122386  1.0000
  C   C113      1.0  0.6674973459423127  0.23199125432839823  0.08519704593363146  1.0000
  C   C114      1.0  0.332502654342453  0.7680087456196553  0.5851970459566654  1.0000
  C   C115      1.0  0.332502654342453  0.7319912546827197  0.08519704593363146  1.0000
  C   C116      1.0  0.6674973459423127  0.26800874526533375  0.5851970459566654  1.0000
  C   C117      1.0  0.9860042505199995  0.4634620327050808  0.16131073612331276  1.0000
  C   C118      1.0  0.013995749764766141  0.5365379672429726  0.6613107361463467  1.0000
  C   C119      1.0  0.013995749764766141  0.9634620322988128  0.16131073612331276  1.0000
  C   C120      1.0  0.9860042505199995  0.036537967649240666  0.6613107361463467  1.0000
  C   C121      1.0  0.16000020940920467  0.4051303262313296  0.1068383133054273  1.0000
  C   C122      1.0  0.839999790875561  0.5948696737167238  0.6068383133284613  1.0000
  C   C123      1.0  0.839999790875561  0.9051303258250616  0.1068383133054273  1.0000
  C   C124      1.0  0.16000020940920467  0.09486967412299185  0.6068383133284613  1.0000
  C   C125      1.0  0.4925010200234234  0.2781616703080374  0.032659612385917906  1.0000
  C   C126      1.0  0.5074989802613423  0.7218383296400159  0.5326596124089519  1.0000
  C   C127      1.0  0.5074989802613423  0.7781616706623589  0.032659612385917906  1.0000
  C   C128      1.0  0.4925010200234234  0.22183832928569458  0.5326596124089519  1.0000
  C   C129      1.0  0.15321220148056847  0.405283597183047  0.14397872625287925  1.0000
  C   C130      1.0  0.8467877988041972  0.5947164027650064  0.6439787262759132  1.0000
  C   C131      1.0  0.8467877988041972  0.9052835967767789  0.14397872625287925  1.0000
  C   C132      1.0  0.15321220148056847  0.09471640317127443  0.6439787262759132  1.0000
  C   C133      1.0  0.3255211702914535  0.3361073547978015  0.050119823559526454  1.0000
  C   C134      1.0  0.6744788299933122  0.6638926451502518  0.5501198235825605  1.0000
  C   C135      1.0  0.6744788299933122  0.8361073543915335  0.050119823559526454  1.0000
  C   C136      1.0  0.3255211702914535  0.16389264555651992  0.5501198235825605  1.0000
  C   C137      1.0  0.9961359688271801  0.4664977081268234  0.08913674302062084  1.0000
  C   C138      1.0  0.003864031457585618  0.5335022918212301  0.5891367430436548  1.0000
  C   C139      1.0  0.003864031457585618  0.9664977077205553  0.08913674302062084  1.0000
  C   C140      1.0  0.9961359688271801  0.0335022922274981  0.5891367430436548  1.0000
  C   C141      1.0  0.8338770437841098  0.5215790414987029  0.10860765402617394  1.0000
  C   C142      1.0  0.16612295650065598  0.4784209584493505  0.6086076540492079  1.0000
  C   C143      1.0  0.16612295650065598  0.021579041144381455  0.10860765402617394  1.0000
  C   C144      1.0  0.8338770437841098  0.978420958803672  0.6086076540492079  1.0000
  N   N1        1.0  0.7074206874037007  0.7010172562339126  0.43724996798703963  1.0000
  N   N2        1.0  0.29257931288106503  0.2989827437141408  0.9372499677451162  1.0000
  N   N3        1.0  0.29257931288106503  0.2010172566401807  0.43724996798703963  1.0000
  N   N4        1.0  0.7074206874037007  0.7989827433078728  0.9372499677451162  1.0000
  N   N5        1.0  0.1960925195269868  0.44411443410665086  0.25622217846821904  1.0000
  N   N6        1.0  0.8039074807577788  0.5558855658414026  0.7562221784912531  1.0000
  N   N7        1.0  0.8039074807577788  0.9441144344609722  0.25622217846821904  1.0000
  N   N8        1.0  0.1960925195269868  0.05588556548708113  0.7562221784912531  1.0000
  N   N9        1.0  0.6623618200756106  0.2275037816600439  0.04962795555785223  1.0000
  N   N10       1.0  0.33763818020915504  0.7724962182880095  0.5496279555808863  1.0000
  N   N11       1.0  0.33763818020915504  0.7275037820143653  0.04962795555785223  1.0000
  N   N12       1.0  0.6623618200756106  0.27249621793368806  0.5496279555808863  1.0000
  N   N13       1.0  0.8265442866880348  0.5196950301471821  0.1441767568549583  1.0000
  N   N14       1.0  0.17345571359673095  0.4803049698008713  0.6441767568779924  1.0000
  N   N15       1.0  0.17345571359673095  0.019695029792860683  0.1441767568549583  1.0000
  N   N16       1.0  0.8265442866880348  0.9803049701551927  0.6441767568779924  1.0000
  O   O1        1.0  0.003792129551666568  0.3710927143876241  0.5190640112056891  1.0000
  O   O2        1.0  0.9962078689854894  0.6289072855604293  0.01906401118265517  1.0000
  O   O3        1.0  0.9962078689854894  0.8710927147419456  0.5190640112056891  1.0000
  O   O4        1.0  0.003792129551666568  0.1289072852061079  0.01906401118265517  1.0000
  O   O5        1.0  0.38081188697213975  0.7829510547653314  0.39921246916558056  1.0000
  O   O6        1.0  0.6191881133126259  0.21704894518272203  0.8992124691886145  1.0000
  O   O7        1.0  0.6191881133126259  0.2829510551715994  0.39921246916558056  1.0000
  O   O8        1.0  0.38081188697213975  0.717048944776454  0.8992124691886145  1.0000
  O   O9        1.0  0.8613835956025542  0.5191571283296553  0.29422677803987524  1.0000
  O   O10       1.0  0.13861640468221156  0.4808428716183981  0.7942267780629093  1.0000
  O   O11       1.0  0.13861640468221156  0.019157128735923342  0.29422677803987524  1.0000
  O   O12       1.0  0.8613835956025542  0.9808428712121301  0.7942267780629093  1.0000
  O   O13       1.0  0.5172842786355865  0.11940646981701866  0.1739980466624862  1.0000
  O   O14       1.0  0.4827157216491793  0.8805935301310348  0.6739980466855202  1.0000
  O   O15       1.0  0.4827157216491793  0.6194064701713401  0.1739980466624862  1.0000
  O   O16       1.0  0.5172842786355865  0.3805935297767133  0.6739980466855202  1.0000
