data_image0
_chemical_formula_structural       H68C116N8O8F8
_chemical_formula_sum              "H68 C116 N8 O8 F8"
_cell_length_a       8.161837624984592
_cell_length_b       12.634097634837001
_cell_length_c       20.2959768690764
_cell_angle_alpha    90.78299334173437
_cell_angle_beta     95.68769546179418
_cell_angle_gamma    91.78749535384783

_space_group_name_H-M_alt    "P 1"
_space_group_IT_number       1

loop_
  _space_group_symop_operation_xyz
  'x, y, z'

loop_
  _atom_site_type_symbol
  _atom_site_label
  _atom_site_symmetry_multiplicity
  _atom_site_fract_x
  _atom_site_fract_y
  _atom_site_fract_z
  _atom_site_occupancy
  H   H1        1.0  0.8689407224729596  0.6844262894279398  0.27609833856293103  1.0000
  H   H2        1.0  0.13105927782836901  0.31557371115725924  0.7239016613847119  1.0000
  H   H3        1.0  0.7519534321257046  0.7381679913216342  0.3796948559059336  1.0000
  H   H4        1.0  0.24804656817562395  0.2618320092635649  0.6203051440417093  1.0000
  H   H5        1.0  0.6120579730790235  0.6053080171837557  0.44500227364691747  1.0000
  H   H6        1.0  0.38794202595994487  0.39469198260871646  0.5549977263001706  1.0000
  H   H7        1.0  0.6017517547995895  0.41408280773150685  0.41257541423340555  1.0000
  H   H8        1.0  0.39824824546468623  0.5859171920617896  0.587424585713902  1.0000
  H   H9        1.0  0.7727585919221648  0.134399099249778  0.2818904924393273  1.0000
  H   H10       1.0  0.22724140711680357  0.8656009005426941  0.7181095075077607  1.0000
  H   H11       1.0  0.9000507571756846  0.06765445307787209  0.18476313361030422  1.0000
  H   H12       1.0  0.09994924186328381  0.9323455467146  0.8152368663367839  1.0000
  H   H13       1.0  0.015543698190221066  0.1943052004627271  0.1060985430239269  1.0000
  H   H14       1.0  0.9844563020740547  0.8056947993305693  0.8939014569233806  1.0000
  H   H15       1.0  0.9972631706784931  0.38727774946264254  0.12379261677408322  1.0000
  H   H16       1.0  0.002736829622835502  0.6127222511225565  0.8762073831735596  1.0000
  H   H17       1.0  0.6314888714994642  0.5203891050866899  0.11446350587728472  1.0000
  H   H18       1.0  0.3685111287648117  0.47961089470660667  0.885536494070023  1.0000
  H   H19       1.0  0.5820603170215863  0.5725829101009888  0.9961961045254814  1.0000
  H   H20       1.0  0.4179396832426896  0.42741708969230774  0.003803895421826271  1.0000
  H   H21       1.0  0.8055123460146811  0.6527803248440963  0.9380866031082634  1.0000
  H   H22       1.0  0.1944876530242873  0.34721967494837586  0.061913396838824686  1.0000
  H   H23       1.0  0.08849357917125304  0.6828113574907538  0.9961497332909596  1.0000
  H   H24       1.0  0.9115064198677154  0.31718864230171834  0.00385026665612852  1.0000
  H   H25       1.0  0.36924080031709255  0.6906584062530332  0.0892069560275587  1.0000
  H   H26       1.0  0.6307591999471833  0.30934159354026314  0.910793043919749  1.0000
  H   H27       1.0  0.5628852127436432  0.6817675192759195  0.19153995350903621  1.0000
  H   H28       1.0  0.4371147875576854  0.3182324813092795  0.8084600464386066  1.0000
  H   H29       1.0  0.4680649186690794  0.6121764425430433  0.295280924037077  1.0000
  H   H30       1.0  0.5319350804069418  0.3878235580413317  0.7047190759103464  1.0000
  H   H31       1.0  0.17790091198418656  0.5492083499075174  0.30011281873515505  1.0000
  H   H32       1.0  0.8220990882800893  0.4507916498857791  0.6998871812121525  1.0000
  H   H33       1.0  0.34173576022642926  0.7407756621257091  0.644181857420887  1.0000
  H   H34       1.0  0.6582642400378467  0.2592243376675874  0.3558181425264208  1.0000
  H   H35       1.0  0.49203597844938823  0.12125802568977359  0.123227245513192  1.0000
  H   H36       1.0  0.5079640205895803  0.8787419741026987  0.8767727544338961  1.0000
  H   H37       1.0  0.5092067007118225  0.3152192632070995  0.10865162718970699  1.0000
  H   H38       1.0  0.4907932995524534  0.6847807365861972  0.8913483727576005  1.0000
  H   H39       1.0  0.3945089128741398  0.4364965226177306  0.18981525448731162  1.0000
  H   H40       1.0  0.605491087390136  0.5635034771755659  0.8101847454599961  1.0000
  H   H41       1.0  0.26641059838914183  0.3642091360938019  0.2855250608890384  1.0000
  H   H42       1.0  0.7335894018751341  0.6357908636994947  0.7144749390582692  1.0000
  H   H43       1.0  0.11024733424386654  0.07694597735482549  0.4147571237473255  1.0000
  H   H44       1.0  0.8897526660204094  0.9230540224384711  0.5852428761999822  1.0000
  H   H45       1.0  0.10296978539107846  0.8851433910288654  0.4392183263636931  1.0000
  H   H46       1.0  0.8970302149102503  0.11485660955633378  0.5607816735839499  1.0000
  H   H47       1.0  0.22499749024572335  0.7556415558309372  0.3655465147590873  1.0000
  H   H48       1.0  0.7750025100185525  0.24435844396235934  0.6344534851882203  1.0000
  H   H49       1.0  0.34718037147835573  0.8162069483438429  0.26520632518137716  1.0000
  H   H50       1.0  0.6528196287859201  0.18379305144945363  0.7347936747659305  1.0000
  H   H51       1.0  0.12663117807553376  0.9836069409770014  0.10890114643057112  1.0000
  H   H52       1.0  0.8733688222257948  0.016393059608197702  0.8910988535170719  1.0000
  H   H53       1.0  0.07567196896858444  0.9304457525503232  0.9895750705057743  1.0000
  H   H54       1.0  0.9243280314178117  0.06955424725578022  0.010424929936749584  1.0000
  H   H55       1.0  0.2936256486124808  0.8507284309632639  0.9310360428104095  1.0000
  H   H56       1.0  0.7063743516517951  0.1492715688300326  0.06896395713689799  1.0000
  H   H57       1.0  0.5721153187588035  0.8214176385841014  0.9898744955191371  1.0000
  H   H58       1.0  0.427884680280165  0.17858236120837084  0.010125504427951086  1.0000
  H   H59       1.0  0.8469182587646039  0.8107533995865303  0.0834760468874523  1.0000
  H   H60       1.0  0.15308174149967188  0.18924660020676606  0.9165239530598552  1.0000
  H   H61       1.0  0.03929029413906622  0.8190464462535263  0.18664974339953633  1.0000
  H   H62       1.0  0.9607097048999023  0.18095355353894585  0.8133502565475517  1.0000
  H   H63       1.0  0.9499538050325211  0.8912076154382215  0.29123475233854923  1.0000
  H   H64       1.0  0.05004619526880741  0.10879238514697769  0.7087652476090938  1.0000
  H   H65       1.0  0.6676999450022352  0.9547964653946655  0.29617516069308963  1.0000
  H   H66       1.0  0.3323000552990934  0.0452035351905338  0.7038248392545533  1.0000
  H   H67       1.0  0.833233420146921  0.7594171478430233  0.6452571388503634  1.0000
  H   H68       1.0  0.16676658011735482  0.24058285195027326  0.3547428610969442  1.0000
  C   C1        1.0  0.8130179614059182  0.6258397480103342  0.3065968679262998  1.0000
  C   C2        1.0  0.18698203885835765  0.37416025178296247  0.6934031320210079  1.0000
  C   C3        1.0  0.7467101029455144  0.6555840841772762  0.3633684449975879  1.0000
  C   C4        1.0  0.2532898973187615  0.3444159156160203  0.6366315549497197  1.0000
  C   C5        1.0  0.6679381962190428  0.5787656888483117  0.40132645752414464  1.0000
  C   C6        1.0  0.332061804045233  0.42123431094498476  0.598673542423163  1.0000
  C   C7        1.0  0.6613713643943268  0.4732281080181673  0.38353079080426844  1.0000
  C   C8        1.0  0.3386286358699492  0.5267718917751292  0.6164692091430392  1.0000
  C   C9        1.0  0.8179438960526814  0.1890983102092466  0.246421918302258  1.0000
  C   C10       1.0  0.18205610421159452  0.81090168958405  0.7535780816450496  1.0000
  C   C11       1.0  0.8910050963840729  0.15273706793573325  0.19271584093328112  1.0000
  C   C12       1.0  0.10899490391725578  0.8472629326494657  0.8072841590143619  1.0000
  C   C13       1.0  0.9557222053079424  0.2246258062694505  0.14792490928708432  1.0000
  C   C14       1.0  0.04427779495633351  0.7753741935238461  0.8520750906602232  1.0000
  C   C15       1.0  0.9464384420581539  0.33192793043977137  0.1575982474301605  1.0000
  C   C16       1.0  0.053561556980814606  0.6680720693527009  0.8424017525169275  1.0000
  C   C17       1.0  0.8718323630985435  0.48145212901680484  0.22854083540343298  1.0000
  C   C18       1.0  0.12816763716573237  0.5185478707764917  0.7714591645438746  1.0000
  C   C19       1.0  0.8082168456828674  0.5173168452390499  0.28627249086791146  1.0000
  C   C20       1.0  0.19178315461846118  0.48268315534614925  0.7137275090797315  1.0000
  C   C21       1.0  0.7352645465921147  0.43880341949989216  0.32645751118090044  1.0000
  C   C22       1.0  0.2647354537942814  0.5611965803062113  0.6735424892616233  1.0000
  C   C23       1.0  0.8067337915115587  0.2998379842578335  0.2582888931532231  1.0000
  C   C24       1.0  0.1932662087527173  0.700162015535463  0.7417111067940845  1.0000
  C   C25       1.0  0.8736700978567522  0.3725897955821016  0.2131727962088535  1.0000
  C   C26       1.0  0.12632990118221632  0.6274102042103706  0.7868272037382346  1.0000
  C   C27       1.0  0.7306363784690787  0.5544226783197866  0.08851813061443212  1.0000
  C   C28       1.0  0.2693636206069426  0.4455773222645882  0.9114818693329915  1.0000
  C   C29       1.0  0.7044554765164928  0.5843471910131469  0.02255002705431696  1.0000
  C   C30       1.0  0.2955445238699035  0.41565280879295663  0.9774499733882069  1.0000
  C   C31       1.0  0.8320404282135  0.6302341075268052  0.9895812667435403  1.0000
  C   C32       1.0  0.1679595720878287  0.36976589305839397  0.010418733204102613  1.0000
  C   C33       1.0  0.9898195446468464  0.647258124027014  0.021832133297840364  1.0000
  C   C34       1.0  0.01018045439212202  0.3527418757654581  0.9781678666492478  1.0000
  C   C35       1.0  0.32670199323573257  0.6600221645535982  0.13467548157640108  1.0000
  C   C36       1.0  0.6732980070285433  0.33997783523969827  0.8653245183709065  1.0000
  C   C37       1.0  0.4349887112848425  0.6546298715270518  0.19213214380626595  1.0000
  C   C38       1.0  0.5650112889794334  0.3453701282662445  0.8078678561410416  1.0000
  C   C39       1.0  0.3812379872813727  0.615405955094135  0.2511777734144769  1.0000
  C   C40       1.0  0.6187620129829032  0.3845940446991616  0.7488222265328308  1.0000
  C   C41       1.0  0.21870640764086302  0.580327982291546  0.2545135702161499  1.0000
  C   C42       1.0  0.7812935915202257  0.4196720175137332  0.7454864302261545  1.0000
  C   C43       1.0  0.8883066843257357  0.5727531033601478  0.1206805341915742  1.0000
  C   C44       1.0  0.11169331593854007  0.4272468964331487  0.8793194657557333  1.0000
  C   C45       1.0  0.019460197313871965  0.6185241256259489  0.08824894554710988  1.0000
  C   C46       1.0  0.9805398029504038  0.3814758741673475  0.9117510544001977  1.0000
  C   C47       1.0  0.16243933666496038  0.6256933814841567  0.13662012660968562  1.0000
  C   C48       1.0  0.8375606623740082  0.3743066183083155  0.8633798733374025  1.0000
  C   C49       1.0  0.11169510308338218  0.5858391691914299  0.19682730436539156  1.0000
  C   C50       1.0  0.8883048971808937  0.41416083060186665  0.803172695581916  1.0000
  C   C51       1.0  0.4146329725694891  0.9350873124922147  0.5425717408032475  1.0000
  C   C52       1.0  0.5853670276947867  0.06491268730108185  0.45742825914406005  1.0000
  C   C53       1.0  0.5017765114093933  0.890691158474631  0.49376011985924123  1.0000
  C   C54       1.0  0.49822348897700275  0.10930884133147252  0.5062398805832826  1.0000
  C   C55       1.0  0.5859828755125118  0.9546181514844156  0.4523551102826071  1.0000
  C   C56       1.0  0.41401712475176394  0.04538184830888072  0.5476448896647005  1.0000
  C   C57       1.0  0.32272181721608667  0.8679491665959977  0.587979398866822  1.0000
  C   C58       1.0  0.6772781818228818  0.13205083319647454  0.412020601080266  1.0000
  C   C59       1.0  0.4417188026208666  0.17449172296421  0.15804914966180209  1.0000
  C   C60       1.0  0.5582811976434093  0.8255082768290865  0.8419508502855055  1.0000
  C   C61       1.0  0.4503956883139172  0.28221169398145957  0.1501588707639366  1.0000
  C   C62       1.0  0.5496043119503587  0.7177883058118368  0.849841129183371  1.0000
  C   C63       1.0  0.3863865551725749  0.35107636994057845  0.19646354216654163  1.0000
  C   C64       1.0  0.613613445091701  0.6489236298527181  0.803536457780766  1.0000
  C   C65       1.0  0.3148744825452502  0.31143742859734086  0.24987017821688218  1.0000
  C   C66       1.0  0.6851255177560786  0.6885625719878582  0.7501298217307607  1.0000
  C   C67       1.0  0.161759440824491  0.01995223048214186  0.3825191671536097  1.0000
  C   C68       1.0  0.8382405582144775  0.9800477693103304  0.6174808327934783  1.0000
  C   C69       1.0  0.15930101484496523  0.9135646197204136  0.3959283090045291  1.0000
  C   C70       1.0  0.8406989854563635  0.08643538086478553  0.6040716909431139  1.0000
  C   C71       1.0  0.22788301838660052  0.8394883125117701  0.35366701316718263  1.0000
  C   C72       1.0  0.7721169818776754  0.1605116872815263  0.646332986780125  1.0000
  C   C73       1.0  0.2963265446350242  0.8726763637607788  0.2980478961356278  1.0000
  C   C74       1.0  0.7036734556292517  0.12732363603251776  0.7019521038116797  1.0000
  C   C75       1.0  0.36567570022269597  0.02113282283222719  0.2255272239786311  1.0000
  C   C76       1.0  0.63432430004158  0.9788671769610694  0.7744727759686766  1.0000
  C   C77       1.0  0.3696578226186322  0.1304360924205137  0.2129449902301443  1.0000
  C   C78       1.0  0.6303421764203362  0.8695639073719585  0.7870550097169438  1.0000
  C   C79       1.0  0.30424077967224167  0.20003353133710958  0.2598661194209068  1.0000
  C   C80       1.0  0.6957592205920342  0.7999664684561869  0.7401338805264008  1.0000
  C   C81       1.0  0.23298631953985463  0.05744089984584397  0.32553291365013437  1.0000
  C   C82       1.0  0.7670136807614741  0.9425591007393551  0.6744670862975086  1.0000
  C   C83       1.0  0.30035694492581955  0.982056323781379  0.2821529486044056  1.0000
  C   C84       1.0  0.6996430553384564  0.01794367601191763  0.7178470513429019  1.0000
  C   C85       1.0  0.22349787603809354  0.9497511679053564  0.08279172294474668  1.0000
  C   C86       1.0  0.7765021230379278  0.050248832679018474  0.9172082770026766  1.0000
  C   C87       1.0  0.19637307695209769  0.9192714714936885  0.016229021083749164  1.0000
  C   C88       1.0  0.8036269233121782  0.080728528299608  0.9837709788635585  1.0000
  C   C89       1.0  0.3205724382043068  0.8734330486504059  0.9830186096486977  1.0000
  C   C90       1.0  0.6794275620970219  0.1265669519347933  0.016981390298945298  1.0000
  C   C91       1.0  0.47575906204121515  0.8567932990080658  0.01564458685957355  1.0000
  C   C92       1.0  0.5242409382601133  0.14320670157713314  0.9843554130880693  1.0000
  C   C93       1.0  0.8071653634339616  0.8425936756698758  0.1292531444331227  1.0000
  C   C94       1.0  0.1928346368673671  0.15740632491532336  0.8707468555145202  1.0000
  C   C95       1.0  0.9145978530982121  0.8473274840318348  0.18720087553160805  1.0000
  C   C96       1.0  0.08540214594075651  0.1526725157606374  0.8127991244154801  1.0000
  C   C97       1.0  0.8640804135624975  0.8877158416904595  0.24666007115426555  1.0000
  C   C98       1.0  0.13591958670177848  0.11228415810283714  0.7533399287930421  1.0000
  C   C99       1.0  0.705653749285063  0.9241417961320669  0.24996742043712503  1.0000
  C   C100      1.0  0.29434625097921296  0.07585820366122958  0.7500325795101827  1.0000
  C   C101      1.0  0.37895153455045755  0.9323551359771215  0.11522622623432938  1.0000
  C   C102      1.0  0.6210484657138183  0.06764486381617506  0.8847737737129782  1.0000
  C   C103      1.0  0.506460739412634  0.8863562727052006  0.08252077646072883  1.0000
  C   C104      1.0  0.4935392608886947  0.11364372787999875  0.9174792234869141  1.0000
  C   C105      1.0  0.6473449321551843  0.879010139652073  0.13118104268829386  1.0000
  C   C106      1.0  0.3526550681461445  0.1209898609331261  0.8688189572593492  1.0000
  C   C107      1.0  0.599434183376111  0.9194083515413218  0.19186705794132705  1.0000
  C   C108      1.0  0.4005658156628577  0.08059164825115037  0.808132942005761  1.0000
  C   C109      1.0  0.9489050687248992  0.5940767348307894  0.5301609203194182  1.0000
  C   C110      1.0  0.05109493153937678  0.40592326496250725  0.4698390796278894  1.0000
  C   C111      1.0  0.07110272129445594  0.5968239551444632  0.4867794372395944  1.0000
  C   C112      1.0  0.9288972777815653  0.40317604543991165  0.513220562707829  1.0000
  C   C113      1.0  0.12077608686448853  0.5049014862586152  0.4572325402009028  1.0000
  C   C114      1.0  0.8792239133997872  0.49509851353468143  0.5427674597464047  1.0000
  C   C115      1.0  0.8899602451171494  0.695039270284536  0.558844215509824  1.0000
  C   C116      1.0  0.11003975514712638  0.30496072950876063  0.4411557844374836  1.0000
  N   N1        1.0  0.7364712363090937  0.3345342858042844  0.3116373416244051  1.0000
  N   N2        1.0  0.2635287627298747  0.6654657139881879  0.688362658322683  1.0000
  N   N3        1.0  0.9451684358219724  0.5543547177141381  0.18664688274315977  1.0000
  N   N4        1.0  0.054831564479356214  0.44564528287106103  0.8133531172044832  1.0000
  N   N5        1.0  0.23627521828607911  0.16206998091460226  0.3131136719049056  1.0000
  N   N6        1.0  0.7637247819781967  0.8379300188786941  0.686886328042402  1.0000
  N   N7        1.0  0.4363455099621255  0.9513702223849283  0.18161326581078555  1.0000
  N   N8        1.0  0.5636544890768429  0.048629777407543984  0.8183867341363025  1.0000
  O   O1        1.0  0.41058589481250884  0.7888671815509334  0.6122033701998365  1.0000
  O   O2        1.0  0.589414105451767  0.21113281824236316  0.387796629747471  1.0000
  O   O3        1.0  0.18290044866361732  0.8889513551612843  0.6005458502825562  1.0000
  O   O4        1.0  0.8170995503753511  0.11104864463118799  0.3994541496645318  1.0000
  O   O5        1.0  0.8833545456231304  0.689212909088005  0.6230817645621289  1.0000
  O   O6        1.0  0.11664545464114545  0.3107870907052916  0.3769182353851786  1.0000
  O   O7        1.0  0.8533183543008734  0.7698598313156932  0.5228719689552237  1.0000
  O   O8        1.0  0.14668164596340244  0.2301401684776032  0.47712803099208395  1.0000
  F   F1        1.0  0.4984288398330818  0.7848186128075196  0.48357436154851163  1.0000
  F   F2        1.0  0.501571160431194  0.2151813869857768  0.516425638398796  1.0000
  F   F3        1.0  0.6635708834224968  0.9074968827028723  0.40448129992039483  1.0000
  F   F4        1.0  0.3364291168788318  0.09250311788232682  0.5955187000272482  1.0000
  F   F5        1.0  0.14809521123903965  0.6896786175417537  0.47431494072402347  1.0000
  F   F6        1.0  0.8519047890622891  0.3103213830434454  0.5256850592236195  1.0000
  F   F7        1.0  0.2459653831077275  0.513302703226298  0.4180107192953389  1.0000
  F   F8        1.0  0.7540346172786685  0.4866972965798054  0.581989281147185  1.0000
