data_image0
_chemical_formula_structural       H32C16N20O12S4
_chemical_formula_sum              "H32 C16 N20 O12 S4"
_cell_length_a       12.988877983755598
_cell_length_b       4.575751047596563
_cell_length_c       14.471582143469453
_cell_angle_alpha    90.0
_cell_angle_beta     95.65623676123397
_cell_angle_gamma    90.0

_space_group_name_H-M_alt    "P 1"
_space_group_IT_number       1

loop_
  _space_group_symop_operation_xyz
  'x, y, z'

loop_
  _atom_site_type_symbol
  _atom_site_label
  _atom_site_symmetry_multiplicity
  _atom_site_fract_x
  _atom_site_fract_y
  _atom_site_fract_z
  _atom_site_occupancy
  H   H1        1.0  0.16505059866248098  0.5877752771127444  0.23348270015643027  1.0000
  H   H2        1.0  0.3349494017088766  0.08777527794283353  0.2665172999444669  1.0000
  H   H3        1.0  0.8349494013065852  0.41222472122707726  0.7665172999799165  1.0000
  H   H4        1.0  0.6650505982601898  0.9122247225824216  0.7334827001918798  1.0000
  H   H5        1.0  0.06079673358776012  0.6254069419932988  0.3045812788027222  1.0000
  H   H6        1.0  0.43920326678359756  0.12540694063795443  0.19541872129817495  1.0000
  H   H7        1.0  0.9392032663813061  0.37459305853195635  0.6954187213336245  1.0000
  H   H8        1.0  0.5607967331854687  0.8745930598873008  0.8045812788381717  1.0000
  H   H9        1.0  0.13066416590769736  0.2819773161998651  0.30460481337050016  1.0000
  H   H10       1.0  0.3693358336900113  0.781977315369776  0.1953951866649494  1.0000
  H   H11       1.0  0.8693358340613688  0.7180226843253901  0.6953951867658466  1.0000
  H   H12       1.0  0.6306641662790551  0.21802268297004573  0.8046048134713972  1.0000
  H   H13       1.0  0.14664489312738507  0.2913917029424802  0.4803199254285473  1.0000
  H   H14       1.0  0.3533551064703236  0.791391702112391  0.019680074606902256  1.0000
  H   H15       1.0  0.853355106841681  0.7086082975827751  0.5196800747077993  1.0000
  H   H16       1.0  0.6466448934953943  0.20860829841286427  0.9803199248381452  1.0000
  H   H17       1.0  0.08666783205571095  0.6471497704306671  0.4867286634902666  1.0000
  H   H18       1.0  0.41333216754199764  0.14714977126075623  0.013271336545182902  1.0000
  H   H19       1.0  0.9133321679133554  0.35285023009458816  0.51327133664608  1.0000
  H   H20       1.0  0.5866678324270685  0.852850229264499  0.9867286635911637  1.0000
  H   H21       1.0  0.20949988721714072  0.5764558763277726  0.5506150484692786  1.0000
  H   H22       1.0  0.29050011222632816  0.07645587715786174  0.9493849517457993  1.0000
  H   H23       1.0  0.7905001127519256  0.4235441220120491  0.4493849516670682  1.0000
  H   H24       1.0  0.7094998877427381  0.9235441233673934  0.05061504839054746  1.0000
  H   H25       1.0  0.7027425133034526  0.973406713710861  0.3311816867181118  1.0000
  H   H26       1.0  0.797257487191211  0.47340671454095024  0.16881831333950387  1.0000
  H   H27       1.0  0.2972574866656137  0.026593286814394174  0.6688183134182349  1.0000
  H   H28       1.0  0.20274251355150422  0.526593285984305  0.8311816868622904  1.0000
  H   H29       1.0  0.4186485915465094  0.6210232441497424  0.3966734023679409  1.0000
  H   H30       1.0  0.0813514088214999  0.12102324497983162  0.103326597041657  1.0000
  H   H31       1.0  0.5813514084192085  0.37897675637551276  0.6033265970771065  1.0000
  H   H32       1.0  0.918648591144218  0.8789767555454236  0.8966734024033906  1.0000
  C   C1        1.0  0.13594637702831047  0.5203488553536202  0.2988799959487913  1.0000
  C   C2        1.0  0.3640536225693982  0.02034885618370938  0.20112000408665834  1.0000
  C   C3        1.0  0.8640536229407558  0.4796511429862015  0.7011200041875555  1.0000
  C   C4        1.0  0.6359463773996681  0.9796511443415458  0.7988799960496883  1.0000
  C   C5        1.0  0.15991828595687355  0.5270680124231791  0.48695916997719374  1.0000
  C   C6        1.0  0.3400817144111357  0.027068013253268283  0.013040829432404255  1.0000
  C   C7        1.0  0.8400817140088443  0.47293198591664254  0.5130408294678538  1.0000
  C   C8        1.0  0.6599182855545821  0.972931987271987  0.9869591700126432  1.0000
  C   C9        1.0  0.5270395426090615  0.9550936085772208  0.46115703548019277  1.0000
  C   C10       1.0  0.9729604578856021  0.4550936094073101  0.038842964577422916  1.0000
  C   C11       1.0  0.4729604573566564  0.04490639194803434  0.5388429639648548  1.0000
  C   C12       1.0  0.027039542083464107  0.5449063911179451  0.9611570355589236  1.0000
  C   C13       1.0  0.5618841337768608  0.721040210815878  0.33606202019591497  1.0000
  C   C14       1.0  0.9381158659441539  0.22104020946053354  0.1639379797962531  1.0000
  C   C15       1.0  0.43811586618885706  0.2789597897093773  0.6639379792491326  1.0000
  C   C16       1.0  0.06188413402491245  0.7789597910647217  0.8360620203400937  1.0000
  N   N1        1.0  0.49180062582065515  0.7431469663949718  0.39962757865793913  1.0000
  N   N2        1.0  0.008199374550702444  0.243146967225061  0.10037242144295792  1.0000
  N   N3        1.0  0.5081993741484111  0.25685303413028343  0.6003724214784074  1.0000
  N   N4        1.0  0.9918006254183638  0.7568530333001943  0.8996275786933888  1.0000
  N   N5        1.0  0.6371662889062405  0.9179122260609315  0.3631605808643379  1.0000
  N   N6        1.0  0.862833711588423  0.41791222470558703  0.13683941919327786  1.0000
  N   N7        1.0  0.3628337110594773  0.0820877744643238  0.6368394185807096  1.0000
  N   N8        1.0  0.13716628838064313  0.5820877758196682  0.8631605809430688  1.0000
  N   N9        1.0  0.6159840488456326  0.06657912478870955  0.4405122334491405  1.0000
  N   N10       1.0  0.884015950875382  0.5665791239586204  0.05948776654302761  1.0000
  N   N11       1.0  0.38401595112343356  0.9334208757365456  0.5594877666872062  1.0000
  N   N12       1.0  0.1159840490936843  0.4334208743812013  0.940512233593319  1.0000
  N   N13       1.0  0.5428814688853832  0.5336090610267129  0.26465127840664904  1.0000
  N   N14       1.0  0.9571185308356315  0.03360905967136854  0.23534872158551903  1.0000
  N   N15       1.0  0.457118531083683  0.46639093949854227  0.7353487217296977  1.0000
  N   N16       1.0  0.04288146913343488  0.9663909408538865  0.7646512785508277  1.0000
  N   N17       1.0  0.6113039360189582  0.5212124731420215  0.20199478943480134  1.0000
  N   N18       1.0  0.8886960637020564  0.02121247397211062  0.29800521055736673  1.0000
  N   N19       1.0  0.388696063950108  0.4787875251978002  0.7980052107015453  1.0000
  N   N20       1.0  0.11130393626700985  0.9787875265531445  0.7019947895789799  1.0000
  O   O1        1.0  0.32069939553955706  0.4563607128706957  0.389064627773266  1.0000
  O   O2        1.0  0.17930060483180058  0.9563607142260402  0.11093537232763111  1.0000
  O   O3        1.0  0.6793006044295091  0.543639285469126  0.6109353723630806  1.0000
  O   O4        1.0  0.8206993951372656  0.04363928629921514  0.8890646278087155  1.0000
  O   O5        1.0  0.5896970838521649  0.3549292221335009  0.13412178354313908  1.0000
  O   O6        1.0  0.9103029166424988  0.8549292234888454  0.3658782165144766  1.0000
  O   O7        1.0  0.4103029161169014  0.6450707783917543  0.8658782165932076  1.0000
  O   O8        1.0  0.08969708332321907  0.1450707770364099  0.634121782930571  1.0000
  O   O9        1.0  0.6945853298871382  0.6702159728752773  0.21085725796365318  1.0000
  O   O10       1.0  0.8054146698338766  0.17021597370536656  0.28914274202851487  1.0000
  O   O11       1.0  0.30541467008192813  0.32978402764997783  0.7891427421726934  1.0000
  O   O12       1.0  0.19458533013518972  0.8297840268198887  0.7108572581078318  1.0000
  S   S1        1.0  0.22513349306461436  0.6534853227145325  0.3912474679233499  1.0000
  S   S2        1.0  0.2748665073067433  0.1534853235446217  0.10875253217754721  1.0000
  S   S3        1.0  0.7748665069011035  0.34651467781072276  0.6087525315216976  1.0000
  S   S4        1.0  0.725133492662323  0.8465146769806335  0.8912474679587994  1.0000
