data_image0
_chemical_formula_structural       H72C48N8O36
_chemical_formula_sum              "H72 C48 N8 O36"
_cell_length_a       11.040340256662192
_cell_length_b       9.650185226198952
_cell_length_c       13.61075560470922
_cell_angle_alpha    90.0
_cell_angle_beta     97.30764123432003
_cell_angle_gamma    90.0

_space_group_name_H-M_alt    "P 1"
_space_group_IT_number       1

loop_
  _space_group_symop_operation_xyz
  'x, y, z'

loop_
  _atom_site_type_symbol
  _atom_site_label
  _atom_site_symmetry_multiplicity
  _atom_site_fract_x
  _atom_site_fract_y
  _atom_site_fract_z
  _atom_site_occupancy
  H   H1        1.0  0.22284660385803107  0.2723151533781578  0.17081822833082053  1.0000
  H   H2        1.0  0.27715339585593224  0.7723151530569747  0.8291817710625756  1.0000
  H   H3        1.0  0.7771533959683251  0.7276848470157257  0.8291817715283736  1.0000
  H   H4        1.0  0.722846603970424  0.2276848473369087  0.17081822879661845  1.0000
  H   H5        1.0  0.3081278852110777  0.411685865802271  0.1291302847038443  1.0000
  H   H6        1.0  0.19187211540741736  0.9116858654810881  0.8708697155244884  1.0000
  H   H7        1.0  0.6918721146066643  0.5883141345916124  0.8708697158891415  1.0000
  H   H8        1.0  0.8081278853320846  0.08831413491279548  0.12913028443585056  1.0000
  H   H9        1.0  0.8327069746899755  0.10667249030674485  0.7455373861125004  1.0000
  H   H10       1.0  0.6672930252573875  0.6066724899855618  0.2544626134786999  1.0000
  H   H11       1.0  0.1672930251363807  0.8933275100871386  0.25446261374669366  1.0000
  H   H12       1.0  0.33270697456896847  0.3933275093720721  0.7455373863804942  1.0000
  H   H13       1.0  0.9360077488580782  0.2206120090027077  0.6965925423897051  1.0000
  H   H14       1.0  0.5639922510806706  0.7206120086815248  0.3034074579352869  1.0000
  H   H15       1.0  0.06399225096827786  0.7793879903549262  0.30340745746948905  1.0000
  H   H16       1.0  0.43600774874568543  0.27938799067610925  0.6965925419239073  1.0000
  H   H17       1.0  0.7455622161782829  0.29376519657919725  0.8229090625728065  1.0000
  H   H18       1.0  0.7544377837604659  0.7937651972942638  0.1770909377521856  1.0000
  H   H19       1.0  0.25443778364807307  0.7062348027784366  0.17709093728638767  1.0000
  H   H20       1.0  0.24556221606589015  0.20623480309961972  0.8229090621070086  1.0000
  H   H21       1.0  0.8418054340358764  0.41061694538694105  0.7723343201788571  1.0000
  H   H22       1.0  0.6581945659028724  0.9106169450657581  0.22766568014613492  1.0000
  H   H23       1.0  0.1581945667036256  0.5893830550069424  0.2276656797814819  1.0000
  H   H24       1.0  0.34180543391486945  0.08938305429187594  0.7723343204468509  1.0000
  H   H25       1.0  0.8665884207475559  0.3213212293150312  0.9798983118078235  1.0000
  H   H26       1.0  0.6334115791998071  0.8213212289938482  0.02010168778337691  1.0000
  H   H27       1.0  0.13341157907880014  0.6786787710788522  0.020101688051370626  1.0000
  H   H28       1.0  0.36658842062654906  0.1786787703637857  0.9798983120758171  1.0000
  H   H29       1.0  0.9646040374532744  0.43242703763559537  0.9243653161265475  1.0000
  H   H30       1.0  0.5353959624854746  0.9324270373144123  0.07563468419844459  1.0000
  H   H31       1.0  0.0353959623644677  0.5675729627582882  0.0756346844664383  1.0000
  H   H32       1.0  0.46460403734088146  0.06757296204322163  0.9243653156607495  1.0000
  H   H33       1.0  0.05249852520135818  0.18640308116744067  0.07251211559578334  1.0000
  H   H34       1.0  0.4475014754171369  0.6864030808462577  0.9274878846325494  1.0000
  H   H35       1.0  0.9475014755381439  0.8135969192264428  0.9274878843645558  1.0000
  H   H36       1.0  0.5524985253223651  0.3135969185113763  0.07251211532778962  1.0000
  H   H37       1.0  0.15114927878412485  0.10601955361669109  0.9957626943942582  1.0000
  H   H38       1.0  0.3488507218343702  0.6060195543317576  0.004237305834074529  1.0000
  H   H39       1.0  0.8488507219553773  0.8939804457409428  0.004237305566080833  1.0000
  H   H40       1.0  0.6511492789051317  0.3939804460621259  0.9957626941262645  1.0000
  H   H41       1.0  0.8537995032034592  0.5806907151156552  0.15000716802707764  1.0000
  H   H42       1.0  0.6462004976570497  0.08069071543683824  0.8499928316652677  1.0000
  H   H43       1.0  0.14620049753604283  0.4193092852782283  0.8499928319332615  1.0000
  H   H44       1.0  0.3537995030824522  0.9193092849570452  0.15000716829507135  1.0000
  H   H45       1.0  0.2240755508633586  0.028708679005234293  0.612981887990015  1.0000
  H   H46       1.0  0.2759244488419906  0.5287086797203008  0.38701811213717285  1.0000
  H   H47       1.0  0.7759244489629976  0.9712913203523997  0.38701811186917917  1.0000
  H   H48       1.0  0.7240755509843655  0.47129132067358265  0.6129818877220212  1.0000
  H   H49       1.0  0.2758185481743835  0.31387517327406317  0.3602407013233991  1.0000
  H   H50       1.0  0.22418145153096566  0.8138751729528801  0.6397592988037888  1.0000
  H   H51       1.0  0.7241814516519726  0.6861248271198204  0.639759298535795  1.0000
  H   H52       1.0  0.7758185482953904  0.18612482640475383  0.3602407010554054  1.0000
  H   H53       1.0  0.9627818113686727  0.049706686323256984  0.26127367771777227  1.0000
  H   H54       1.0  0.5372181885700762  0.549706686002074  0.7387263226072198  1.0000
  H   H55       1.0  0.03721818844906926  0.9502933140706266  0.7387263228752136  1.0000
  H   H56       1.0  0.46278181125627993  0.45029331335555994  0.26127367725197437  1.0000
  H   H57       1.0  0.9174517214765416  0.39729021051237573  0.38010758201472417  1.0000
  H   H58       1.0  0.5825482784708214  0.8972902101911927  0.6198924175764763  1.0000
  H   H59       1.0  0.08254827834981443  0.6027097898815077  0.61989241784447  1.0000
  H   H60       1.0  0.4174517213555347  0.10270979020269075  0.38010758228271785  1.0000
  H   H61       1.0  0.027354906296711192  0.5294474769384769  0.38234694158913524  1.0000
  H   H62       1.0  0.47264509432178387  0.02944747725965995  0.6176530586391975  1.0000
  H   H63       1.0  0.9726450944427909  0.47055252345540655  0.6176530583712039  1.0000
  H   H64       1.0  0.5273549055045722  0.9705525231342236  0.3823469412199967  1.0000
  H   H65       1.0  0.014280878505499785  0.25227948302904507  0.4967660093003158  1.0000
  H   H66       1.0  0.4857191211998494  0.752279482707862  0.5032339908268721  1.0000
  H   H67       1.0  0.9857191213208564  0.7477205173648385  0.5032339905588783  1.0000
  H   H68       1.0  0.5142808786178926  0.24772051664977188  0.49676600976611374  1.0000
  H   H69       1.0  0.12731948375739507  0.38140543665499577  0.5248375720201808  1.0000
  H   H70       1.0  0.37268051686109993  0.8814054373700623  0.475162428208152  1.0000
  H   H71       1.0  0.872680516982107  0.6185945627026382  0.47516242794015834  1.0000
  H   H72       1.0  0.627319482956642  0.11859456302382122  0.5248375723848338  1.0000
  C   C1        1.0  0.9995415571970929  0.1415333921562431  0.8387292268201679  1.0000
  C   C2        1.0  0.500458442741656  0.6415333928713096  0.16127077350482422  1.0000
  C   C3        1.0  0.00045844262926311507  0.8584666072013909  0.1612707730390263  1.0000
  C   C4        1.0  0.49954155798923194  0.3584666075225738  0.8387292271893065  1.0000
  C   C5        1.0  0.8970914520668726  0.19224207271829968  0.7642546714482042  1.0000
  C   C6        1.0  0.6029085478804904  0.6922420734333662  0.23574532814299617  1.0000
  C   C7        1.0  0.1029085477594835  0.8077579266393342  0.2357453284109899  1.0000
  C   C8        1.0  0.39709145194586565  0.3077579269605173  0.764254671716198  1.0000
  C   C9        1.0  0.8409461126505013  0.31459106523241065  0.8149224263821251  1.0000
  C   C10       1.0  0.6590538872882474  0.8145910659474772  0.18507757394286709  1.0000
  C   C11       1.0  0.1590538871758546  0.6854089341252232  0.18507757347706916  1.0000
  C   C12       1.0  0.34094611253810864  0.1854089344464063  0.8149224259163271  1.0000
  C   C13       1.0  0.918267810741746  0.3317102236866439  0.9167212477599083  1.0000
  C   C14       1.0  0.581732189205617  0.8317102233654607  0.08327875183129226  1.0000
  C   C15       1.0  0.0817321890846101  0.6682897767072397  0.08327875209928597  1.0000
  C   C16       1.0  0.41826781062073903  0.16828977702842265  0.916721248027902  1.0000
  C   C17       1.0  0.09835313740970493  0.20075257983033246  0.006099868859738853  1.0000
  C   C18       1.0  0.4016468632087901  0.7007525795091495  0.9939001313685939  1.0000
  C   C19       1.0  0.9016468633297972  0.799247420563551  0.9939001311006003  1.0000
  C   C20       1.0  0.598353136617566  0.2992474198484845  0.0060998684906002475  1.0000
  C   C21       1.0  0.18735248614347327  0.32250359107623594  0.02327881467806441  1.0000
  C   C22       1.0  0.3126475144750218  0.822503590755053  0.9767211855502684  1.0000
  C   C23       1.0  0.8126475145960287  0.6774964093176475  0.9767211852822747  1.0000
  C   C24       1.0  0.6873524853513343  0.17749640860258104  0.02327881430892581  1.0000
  C   C25       1.0  0.9547983250632123  0.45365367476209156  0.23814692127339482  1.0000
  C   C26       1.0  0.5452016748841508  0.9536536744409086  0.7618530783178057  1.0000
  C   C27       1.0  0.04520167476314391  0.5463463256317919  0.7618530785857994  1.0000
  C   C28       1.0  0.45479832494220523  0.04634632595297496  0.23814692154138853  1.0000
  C   C29       1.0  0.9980680602834915  0.4307664042255243  0.3465791404696116  1.0000
  C   C30       1.0  0.5019319396638716  0.9307664039043413  0.6534208591215889  1.0000
  C   C31       1.0  0.0019319395428646655  0.5692335961683592  0.6534208593895825  1.0000
  C   C32       1.0  0.4980680601624845  0.06923359545329269  0.3465791407376053  1.0000
  C   C33       1.0  0.09993026461469047  0.32438365239886674  0.37067029667372575  1.0000
  C   C34       1.0  0.4000697350906587  0.8243836531139332  0.6293297034534621  1.0000
  C   C35       1.0  0.9000697352116657  0.6756163469587673  0.6293297031854684  1.0000
  C   C36       1.0  0.5999302647356973  0.1756163472799502  0.370670296405732  1.0000
  C   C37       1.0  0.10450643290676298  0.2867543705262088  0.4812384953072427  1.0000
  C   C38       1.0  0.3954935668072004  0.7867543702050257  0.5187615040861535  1.0000
  C   C39       1.0  0.8954935669195931  0.7132456298676747  0.5187615045519514  1.0000
  C   C40       1.0  0.6045064330191557  0.21324563018885773  0.4812384957730406  1.0000
  C   C41       1.0  0.19762897781139063  0.17832524968827185  0.5176588448974411  1.0000
  C   C42       1.0  0.3023710218939585  0.6783252504033382  0.4823411552297468  1.0000
  C   C43       1.0  0.8023710220149655  0.8216747496693622  0.4823411549617531  1.0000
  C   C44       1.0  0.6976289779237834  0.32167474999054513  0.5176588453632389  1.0000
  C   C45       1.0  0.080284534648622  0.19256918871928894  0.30633802891234013  1.0000
  C   C46       1.0  0.41971546506534124  0.6925691894343555  0.6936619704810562  1.0000
  C   C47       1.0  0.9197154651777341  0.807430810638345  0.693661970946854  1.0000
  C   C48       1.0  0.5802845347610147  0.307430810959528  0.306338029378138  1.0000
  N   N1        1.0  0.008932971913695135  0.22037798551537932  0.9203093525146476  1.0000
  N   N2        1.0  0.491067027791654  0.7203779851941963  0.07969064761254015  1.0000
  N   N3        1.0  0.991067027912661  0.7796220148785041  0.07969064734454645  1.0000
  N   N4        1.0  0.508932972034702  0.2796220141634376  0.920309352246654  1.0000
  N   N5        1.0  0.2446713722271908  0.3345777872982596  0.11454528713379493  1.0000
  N   N6        1.0  0.2553286274781584  0.8345777869770766  0.8854547129933931  1.0000
  N   N7        1.0  0.7553286275991653  0.6654222120593744  0.8854547127253992  1.0000
  N   N8        1.0  0.7446713723481976  0.16542221238055738  0.11454528686580122  1.0000
  O   O1        1.0  0.06838569741304332  0.03986370841417765  0.8269060930813343  1.0000
  O   O2        1.0  0.43161430229230585  0.5398637080929946  0.17309390704585356  1.0000
  O   O3        1.0  0.9316143024133128  0.960136291979706  0.17309390677785982  1.0000
  O   O4        1.0  0.5683856975340502  0.46013629126463934  0.8269060928133406  1.0000
  O   O5        1.0  0.20868882420666648  0.40396802534074283  0.9550698420526105  1.0000
  O   O6        1.0  0.29131117550729674  0.9039680250195599  0.044930157340785926  1.0000
  O   O7        1.0  0.7913111756196894  0.5960319750531407  0.04493015780658381  1.0000
  O   O8        1.0  0.7086888243190593  0.09603197537432369  0.9550698425184082  1.0000
  O   O9        1.0  0.8888326149155917  0.5688785387347778  0.22393544080148808  1.0000
  O   O10       1.0  0.6111673850231572  0.06887853905596075  0.776064559523504  1.0000
  O   O11       1.0  0.11116738491076436  0.4311214616591057  0.7760645590577061  1.0000
  O   O12       1.0  0.3888326147945848  0.9311214613379227  0.2239354410694818  1.0000
  O   O13       1.0  0.9754348964271914  0.3733739897777291  0.17204218577150263  1.0000
  O   O14       1.0  0.5245651035115575  0.8733739904927956  0.8279578145534894  1.0000
  O   O15       1.0  0.024565103399164654  0.6266260095799049  0.8279578140876915  1.0000
  O   O16       1.0  0.4754348963147986  0.12662600990108783  0.17204218530570475  1.0000
  O   O17       1.0  0.16460025439868461  0.1072138291388553  0.5933008050303847  1.0000
  O   O18       1.0  0.3353997453066645  0.6072138298539218  0.4066991950968031  1.0000
  O   O19       1.0  0.8353997454276715  0.8927861702187787  0.40669919482880934  1.0000
  O   O20       1.0  0.6646002545196915  0.3927861705399617  0.5933008047623911  1.0000
  O   O21       1.0  0.2939191382638813  0.1589106814070995  0.4820843432779983  1.0000
  O   O22       1.0  0.20608086144146792  0.6589106810859164  0.5179156568491896  1.0000
  O   O23       1.0  0.7060808615538607  0.8410893189867841  0.5179156573149875  1.0000
  O   O24       1.0  0.7939191383848881  0.3410893182717175  0.48208434301000463  1.0000
  O   O25       1.0  0.21234911194212566  0.3858031688233674  0.3501778418362838  1.0000
  O   O26       1.0  0.2876508877718376  0.8858031685021844  0.6498221575571125  1.0000
  O   O27       1.0  0.7876508878842304  0.6141968315705161  0.6498221580229103  1.0000
  O   O28       1.0  0.7123491120545183  0.11419683189169912  0.3501778423020817  1.0000
  O   O29       1.0  0.9757598239594454  0.12943034985577898  0.31440969119743545  1.0000
  O   O30       1.0  0.5242401759793034  0.629430349534596  0.6855903091275566  1.0000
  O   O31       1.0  0.024240175866910574  0.8705696505381045  0.6855903086617587  1.0000
  O   O32       1.0  0.4757598238470527  0.37056964982303797  0.31440969073163755  1.0000
  O   O33       1.0  0.15934594433697866  0.1484222630371376  0.2580896198672984  1.0000
  O   O34       1.0  0.3406540553769846  0.6484222627159546  0.7419103795260978  1.0000
  O   O35       1.0  0.8406540554893773  0.8515777373567458  0.7419103799918957  1.0000
  O   O36       1.0  0.6593459444493716  0.35157773664167935  0.25808962033309624  1.0000
