data_image0
_chemical_formula_structural       H120C24N24Cl36I12
_chemical_formula_sum              "H120 C24 N24 Cl36 I12"
_cell_length_a       8.599422076421122
_cell_length_b       15.967817540208504
_cell_length_c       19.874243591361676
_cell_angle_alpha    90.0
_cell_angle_beta     101.6941775679959
_cell_angle_gamma    90.0

_space_group_name_H-M_alt    "P 1"
_space_group_IT_number       1

loop_
  _space_group_symop_operation_xyz
  'x, y, z'

loop_
  _atom_site_type_symbol
  _atom_site_label
  _atom_site_symmetry_multiplicity
  _atom_site_fract_x
  _atom_site_fract_y
  _atom_site_fract_z
  _atom_site_occupancy
  H   H1        1.0  0.8675044133066175  0.23211822158331114  0.21598023831260615  1.0000
  H   H2        1.0  0.13249558695839156  0.23211822158331114  0.28401976190665773  1.0000
  H   H3        1.0  0.3675044133894357  0.7321182215767823  0.21598023851523054  1.0000
  H   H4        1.0  0.6324955868755733  0.7321182215767823  0.28401976170403337  1.0000
  H   H5        1.0  0.13249558691638516  0.767881778403631  0.7840197615035195  1.0000
  H   H6        1.0  0.8675044123371725  0.767881778403631  0.7159802384213635  1.0000
  H   H7        1.0  0.632495587069893  0.26788177841016  0.7840197618147206  1.0000
  H   H8        1.0  0.3675044121836646  0.26788177841016  0.7159802381101623  1.0000
  H   H9        1.0  0.8681613677257126  0.12208000843517565  0.2015977593210035  1.0000
  H   H10       1.0  0.1318386325392964  0.12208000843517565  0.29840224089826045  1.0000
  H   H11       1.0  0.3681613675722049  0.6220800084286467  0.20159775900980237  1.0000
  H   H12       1.0  0.6318386324564783  0.6220800084286467  0.29840224069563603  1.0000
  H   H13       1.0  0.13183863273361593  0.8779199915517666  0.7984022410089476  1.0000
  H   H14       1.0  0.8681613676837061  0.8779199915517666  0.7015977589178651  1.0000
  H   H15       1.0  0.6318386326507978  0.3779199915582955  0.7984022408063233  1.0000
  H   H16       1.0  0.36816136776652447  0.3779199915582955  0.7015977591204896  1.0000
  H   H17       1.0  0.11131328581254143  0.8521772299649109  0.4813557982443689  1.0000
  H   H18       1.0  0.8886867144524676  0.8521772299649109  0.01864420197489496  1.0000
  H   H19       1.0  0.6113132857297232  0.35217722997143974  0.4813557980417446  1.0000
  H   H20       1.0  0.3886867145352858  0.35217722997143974  0.018644202177519355  1.0000
  H   H21       1.0  0.8886867146467871  0.14782277002203134  0.518644202085582  1.0000
  H   H22       1.0  0.11131328577053502  0.14782277002203134  0.9813557978412306  1.0000
  H   H23       1.0  0.3886867144932793  0.6478227700155024  0.518644201774381  1.0000
  H   H24       1.0  0.6113132859240427  0.6478227700155024  0.9813557981524317  1.0000
  H   H25       1.0  0.1183991832593867  0.7532667811184759  0.44163114641620754  1.0000
  H   H26       1.0  0.8816008170056224  0.7532667811184759  0.058368853803056425  1.0000
  H   H27       1.0  0.6183991831765685  0.2532667811250048  0.44163114621358307  1.0000
  H   H28       1.0  0.38160081685211467  0.2532667811250048  0.05836885349185531  1.0000
  H   H29       1.0  0.8816008169636159  0.24673321886846628  0.5583688533999182  1.0000
  H   H30       1.0  0.11839918345370622  0.24673321886846628  0.9416311465268947  1.0000
  H   H31       1.0  0.3816008170464342  0.7467332188619374  0.5583688536025425  1.0000
  H   H32       1.0  0.6183991833708881  0.7467332188619374  0.9416311463242703  1.0000
  H   H33       1.0  0.8445728829664425  0.7794982544519651  0.3688280815346573  1.0000
  H   H34       1.0  0.15542711729856648  0.7794982544519651  0.1311719186846066  1.0000
  H   H35       1.0  0.3445728828129348  0.27949825445849397  0.36882808122345623  1.0000
  H   H36       1.0  0.6554271160519837  0.27949825445849397  0.13117191848005233  1.0000
  H   H37       1.0  0.15542711632912132  0.22050174553497714  0.6311719187933639  1.0000
  H   H38       1.0  0.8445728829244362  0.22050174553497714  0.868828081131519  1.0000
  H   H39       1.0  0.6554271162463032  0.7205017455284483  0.6311719185907395  1.0000
  H   H40       1.0  0.34457288300725436  0.7205017455284483  0.8688280813341434  1.0000
  H   H41       1.0  0.858213607729244  0.7646881716460645  0.458378021073036  1.0000
  H   H42       1.0  0.141786392535765  0.7646881716460645  0.0416219791462279  1.0000
  H   H43       1.0  0.35821360757573634  0.2646881716525934  0.45837802076183487  1.0000
  H   H44       1.0  0.6417863924529468  0.2646881716525934  0.0416219789436035  1.0000
  H   H45       1.0  0.1417863927300846  0.23531182834087772  0.5416219792569151  1.0000
  H   H46       1.0  0.8582136079235636  0.23531182834087772  0.9583780211837232  1.0000
  H   H47       1.0  0.6417863926472662  0.7353118283343488  0.5416219790542907  1.0000
  H   H48       1.0  0.35821360777005584  0.7353118283343488  0.9583780208725221  1.0000
  H   H49       1.0  0.8465584703300862  0.09606460282611484  0.31508103693582923  1.0000
  H   H50       1.0  0.15344152993492274  0.09606460282611484  0.18491896328343466  1.0000
  H   H51       1.0  0.34655847017657854  0.596064602819586  0.3150810366246281  1.0000
  H   H52       1.0  0.6534415298521046  0.596064602819586  0.18491896308081027  1.0000
  H   H53       1.0  0.15344153012924228  0.9039353971608274  0.6849189633941218  1.0000
  H   H54       1.0  0.8465584705244058  0.9039353971608274  0.8150810370465164  1.0000
  H   H55       1.0  0.6534415300464241  0.40393539716735627  0.6849189631914976  1.0000
  H   H56       1.0  0.3465584703708981  0.40393539716735627  0.8150810367353153  1.0000
  H   H57       1.0  0.7139849920793867  0.17259728469843302  0.2858567701291611  1.0000
  H   H58       1.0  0.2860150081856223  0.17259728469843302  0.2141432300901028  1.0000
  H   H59       1.0  0.21398499216220496  0.672597284691904  0.28585677033178547  1.0000
  H   H60       1.0  0.7860150081028041  0.672597284691904  0.21414322988747844  1.0000
  H   H61       1.0  0.2860150081436159  0.8274027152885092  0.7141432296869645  1.0000
  H   H62       1.0  0.7139849922737064  0.8274027152885092  0.7858567702398483  1.0000
  H   H63       1.0  0.7860150082971237  0.32740271529503806  0.7141432299981656  1.0000
  H   H64       1.0  0.21398499212019853  0.32740271529503806  0.7858567699286472  1.0000
  H   H65       1.0  0.8861282465015737  0.19703961246283858  0.3407088636238087  1.0000
  H   H66       1.0  0.1138717535271094  0.19703961246283858  0.15929113608162968  1.0000
  H   H67       1.0  0.3861282465843919  0.6970396124563096  0.3407088638264331  1.0000
  H   H68       1.0  0.6138717536806171  0.6970396124563096  0.15929113639283082  1.0000
  H   H69       1.0  0.11387175372142894  0.8029603875241036  0.6592911361923169  1.0000
  H   H70       1.0  0.8861282466958933  0.8029603875241036  0.8407088637344959  1.0000
  H   H71       1.0  0.6138717536386107  0.30296038753063254  0.6592911359896925  1.0000
  H   H72       1.0  0.38612824677871144  0.30296038753063254  0.8407088639371202  1.0000
  H   H73       1.0  0.0807625876357489  0.8288395127683293  0.33008023210057325  1.0000
  H   H74       1.0  0.9192374123929342  0.8288395127683293  0.16991976760486516  1.0000
  H   H75       1.0  0.580762586625492  0.32883951277485823  0.33008023240984447  1.0000
  H   H76       1.0  0.4192374124757524  0.32883951277485823  0.16991976780748955  1.0000
  H   H77       1.0  0.9192374125872538  0.17116048721861285  0.6699197677155524  1.0000
  H   H78       1.0  0.08076258666630375  0.17116048721861285  0.8300802322093306  1.0000
  H   H79       1.0  0.41923741267007203  0.671160487212084  0.6699197679181768  1.0000
  H   H80       1.0  0.5807625865834856  0.671160487212084  0.8300802320067061  1.0000
  H   H81       1.0  0.2543633011066944  0.8462566519171005  0.38610427551616955  1.0000
  H   H82       1.0  0.7456366989219887  0.8462566519171005  0.11389572418926881  1.0000
  H   H83       1.0  0.7543633012602021  0.34625665192362937  0.38610427582737067  1.0000
  H   H84       1.0  0.24563669900480686  0.34625665192362937  0.11389572439189323  1.0000
  H   H85       1.0  0.7456366979525435  0.15374334806984172  0.6138957242980261  1.0000
  H   H86       1.0  0.254363301301014  0.15374334806984172  0.8861042756268568  1.0000
  H   H87       1.0  0.24563669803536178  0.6537433480633128  0.6138957245006506  1.0000
  H   H88       1.0  0.7543633012181957  0.6537433480633128  0.8861042754242323  1.0000
  H   H89       1.0  0.10905429404020514  0.920284967121945  0.3755791261155049  1.0000
  H   H90       1.0  0.890945705988478  0.920284967121945  0.12442087358993353  1.0000
  H   H91       1.0  0.6090542941937128  0.4202849671284739  0.375579126426706  1.0000
  H   H92       1.0  0.3909457060712962  0.4202849671284739  0.12442087379255792  1.0000
  H   H93       1.0  0.8909457061827976  0.07971503286499722  0.6244208737006207  1.0000
  H   H94       1.0  0.10905429423452472  0.07971503286499722  0.8755791262261922  1.0000
  H   H95       1.0  0.39094570626561576  0.5797150328584683  0.6244208739032452  1.0000
  H   H96       1.0  0.6090542943880325  0.5797150328584683  0.8755791265373933  1.0000
  H   H97       1.0  0.8385508213714724  0.9180077592374963  0.4691195683925334  1.0000
  H   H98       1.0  0.16144917749344603  0.9180077592374963  0.030880431310975103  1.0000
  H   H99       1.0  0.33855082145429066  0.4180077592440252  0.46911956859515774  1.0000
  H   H100      1.0  0.6614491776469538  0.4180077592440252  0.030880431622176224  1.0000
  H   H101      1.0  0.16144917768776557  0.08199224074944586  0.5308804314216623  1.0000
  H   H102      1.0  0.838550821565792  0.08199224074944586  0.9691195685032206  1.0000
  H   H103      1.0  0.6614491778412733  0.581992240742917  0.5308804317328635  1.0000
  H   H104      1.0  0.3385508216486101  0.581992240742917  0.9691195687058448  1.0000
  H   H105      1.0  0.6779635601485793  0.870407613000475  0.41937756133468507  1.0000
  H   H106      1.0  0.3220364401164298  0.870407613000475  0.08062243888457894  1.0000
  H   H107      1.0  0.17796355999507152  0.37040761300700387  0.41937756102348384  1.0000
  H   H108      1.0  0.8220364400336115  0.37040761300700387  0.08062243868195454  1.0000
  H   H109      1.0  0.3220364403107493  0.12959238698646725  0.5806224389952661  1.0000
  H   H110      1.0  0.6779635601065728  0.12959238698646725  0.9193775609315468  1.0000
  H   H111      1.0  0.8220364402279312  0.6295923869799384  0.5806224387926417  1.0000
  H   H112      1.0  0.17796356018939105  0.6295923869799384  0.919377561134171  1.0000
  H   H113      1.0  0.8052867350114532  0.92617758392841  0.3823451737748958  1.0000
  H   H114      1.0  0.1947132650172299  0.92617758392841  0.11765482593054258  1.0000
  H   H115      1.0  0.30528673509427146  0.42617758393493893  0.3823451739775202  1.0000
  H   H116      1.0  0.6947132651707376  0.42617758393493893  0.1176548262417437  1.0000
  H   H117      1.0  0.19471326521154944  0.07382241605853218  0.6176548260412298  1.0000
  H   H118      1.0  0.8052867352057727  0.07382241605853218  0.8823451738855829  1.0000
  H   H119      1.0  0.6947132651287312  0.5738224160520033  0.6176548258386054  1.0000
  H   H120      1.0  0.30528673528859107  0.5738224160520033  0.8823451740882075  1.0000
  C   C1        1.0  0.9098304733209813  0.17178364125797635  0.23903854618764708  1.0000
  C   C2        1.0  0.09016952694402777  0.17178364125797635  0.26096145403161686  1.0000
  C   C3        1.0  0.4098304731674735  0.6717836412514475  0.23903854587644596  1.0000
  C   C4        1.0  0.5901695268612096  0.6717836412514475  0.26096145382899244  1.0000
  C   C5        1.0  0.09016952713834732  0.8282163587289658  0.7609614541423041  1.0000
  C   C6        1.0  0.9098304721152103  0.8282163587289658  0.7390385457825789  1.0000
  C   C7        1.0  0.5901695270555292  0.32821635873549476  0.7609614539396796  1.0000
  C   C8        1.0  0.4098304721980284  0.32821635873549476  0.7390385459852031  1.0000
  C   C9        1.0  0.0671676266302319  0.8163391883190186  0.4342953669898331  1.0000
  C   C10       1.0  0.9328323733984513  0.8163391883190186  0.06570463271560528  1.0000
  C   C11       1.0  0.5671676267837397  0.3163391883255476  0.43429536730103424  1.0000
  C   C12       1.0  0.4328323734812694  0.3163391883255476  0.06570463291822967  1.0000
  C   C13       1.0  0.9328323735927706  0.18366081166792353  0.5657046328262925  1.0000
  C   C14       1.0  0.06716762682455145  0.18366081166792353  0.9342953671005203  1.0000
  C   C15       1.0  0.43283237367558897  0.6836608116613947  0.5657046330289168  1.0000
  C   C16       1.0  0.5671676269780592  0.6836608116613947  0.9342953674117215  1.0000
  C   C17       1.0  0.8882896987632106  0.8071341194591147  0.4196349761771674  1.0000
  C   C18       1.0  0.11171030126547249  0.8071341194591147  0.08036502352827102  1.0000
  C   C19       1.0  0.3882896988460289  0.30713411946564373  0.4196349763797918  1.0000
  C   C20       1.0  0.6117103014189802  0.30713411946564373  0.08036502383947214  1.0000
  C   C21       1.0  0.11171030145979206  0.1928658805278274  0.5803650236389583  1.0000
  C   C22       1.0  0.8882896989575302  0.1928658805278274  0.9196349762878546  1.0000
  C   C23       1.0  0.6117103013769738  0.6928658805212985  0.5803650234363338  1.0000
  C   C24       1.0  0.3882896990403483  0.6928658805212985  0.919634976490479  1.0000
  N   N1        1.0  0.8351726042191759  0.15782394767814292  0.29922298568613  1.0000
  N   N2        1.0  0.16482739604583324  0.15782394767814292  0.20077701453313396  1.0000
  N   N3        1.0  0.33517260406566807  0.657823947671614  0.29922298537492886  1.0000
  N   N4        1.0  0.6648273959630151  0.657823947671614  0.20077701433050957  1.0000
  N   N5        1.0  0.16482739624015277  0.8421760523087993  0.7007770146438211  1.0000
  N   N6        1.0  0.8351726030134048  0.8421760523087993  0.7992229852810617  1.0000
  N   N7        1.0  0.6648273961573347  0.3421760523153282  0.7007770144411968  1.0000
  N   N8        1.0  0.3351726030962229  0.3421760523153282  0.7992229854836861  1.0000
  N   N9        1.0  0.13032720870007047  0.8562877353508048  0.3774073015758447  1.0000
  N   N10       1.0  0.8696727915649386  0.8562877353508048  0.12259269864341922  1.0000
  N   N11       1.0  0.6303272086172522  0.35628773535733377  0.3774073013732203  1.0000
  N   N12       1.0  0.36967279141143083  0.35628773535733377  0.12259269833221811  1.0000
  N   N13       1.0  0.8696727915229322  0.14371226463613732  0.6225926982402809  1.0000
  N   N14       1.0  0.13032720889438998  0.14371226463613732  0.8774073016865318  1.0000
  N   N15       1.0  0.36967279160575034  0.6437122646296085  0.6225926984429052  1.0000
  N   N16       1.0  0.6303272088115718  0.6437122646296085  0.8774073014839076  1.0000
  N   N17       1.0  0.7983590673955131  0.8865232399076597  0.4230234592556164  1.0000
  N   N18       1.0  0.20164093170573127  0.8865232399076597  0.07697654096171769  1.0000
  N   N19       1.0  0.29835906747833135  0.3865232399141886  0.42302345945824077  1.0000
  N   N20       1.0  0.7016409316229131  0.3865232399141886  0.07697654075909328  1.0000
  N   N21       1.0  0.20164093166372485  0.11347676007928253  0.5769765405585794  1.0000
  N   N22       1.0  0.7983590675898325  0.11347676007928253  0.9230234593663035  1.0000
  N   N23       1.0  0.7016409318172327  0.6134767600727536  0.5769765408697806  1.0000
  N   N24       1.0  0.2983590674363249  0.6134767600727536  0.9230234590551024  1.0000
  Cl  Cl1       1.0  0.30528845198862914  0.453647833322212  0.2699045853173431  1.0000
  Cl  Cl2       1.0  0.6947115480400541  0.453647833322212  0.23009541438809533  1.0000
  Cl  Cl3       1.0  0.8052884521421367  0.953647833315683  0.2699045856285442  1.0000
  Cl  Cl4       1.0  0.19471154812287225  0.953647833315683  0.23009541459071972  1.0000
  Cl  Cl5       1.0  0.6947115482343735  0.5463521666647302  0.7300954144987825  1.0000
  Cl  Cl6       1.0  0.30528845218294864  0.5463521666647302  0.7699045854280303  1.0000
  Cl  Cl7       1.0  0.19471154831719176  0.04635216667125916  0.7300954147014069  1.0000
  Cl  Cl8       1.0  0.8052884521001304  0.04635216667125916  0.769904585225406  1.0000
  Cl  Cl9       1.0  0.1680748410918142  0.5856908119378399  0.420550194878847  1.0000
  Cl  Cl10      1.0  0.8319251591731948  0.5856908119378399  0.07944980534041689  1.0000
  Cl  Cl11      1.0  0.6680748410089961  0.08569081194436877  0.4205501946762227  1.0000
  Cl  Cl12      1.0  0.33192515901968705  0.08569081194436877  0.07944980502921575  1.0000
  Cl  Cl13      1.0  0.8319251591311884  0.41430918804910233  0.5794498049372785  1.0000
  Cl  Cl14      1.0  0.16807484128613367  0.41430918804910233  0.920550194989534  1.0000
  Cl  Cl15      1.0  0.3319251592140066  0.9143091880425734  0.579449805139903  1.0000
  Cl  Cl16      1.0  0.6680748412033155  0.9143091880425734  0.9205501947869098  1.0000
  Cl  Cl17      1.0  0.5754422003412322  0.5453608120253038  0.42140812203577793  1.0000
  Cl  Cl18      1.0  0.42455779968745083  0.5453608120253038  0.07859187766966043  1.0000
  Cl  Cl19      1.0  0.07544220042405046  0.04536081203183275  0.42140812223840235  1.0000
  Cl  Cl20      1.0  0.9245577996046326  0.04536081203183275  0.07859187746703604  1.0000
  Cl  Cl21      1.0  0.4245577998817704  0.4546391879616383  0.5785918777803476  1.0000
  Cl  Cl22      1.0  0.5754422005355517  0.4546391879616383  0.9214081221464652  1.0000
  Cl  Cl23      1.0  0.9245577997989521  0.9546391879551095  0.5785918775777232  1.0000
  Cl  Cl24      1.0  0.07544220061836993  0.9546391879551095  0.9214081223490894  1.0000
  Cl  Cl25      1.0  0.4999999995506222  0.237539734559772  0.250000000108667  1.0000
  Cl  Cl26      1.0  0.9999999993971145  0.7375397345532431  0.24999999979746587  1.0000
  Cl  Cl27      1.0  0.49999999974494175  0.7624602654271703  0.7500000002193542  1.0000
  Cl  Cl28      1.0  0.9999999995914339  0.2624602654336991  0.749999999908153  1.0000
  Cl  Cl29      1.0  0.4778208945856751  0.7909219533726642  0.4097743847970118  1.0000
  Cl  Cl30      1.0  0.5221791054430079  0.7909219533726642  0.09022561490842666  1.0000
  Cl  Cl31      1.0  0.977820894739183  0.2909219533791931  0.4097743851082129  1.0000
  Cl  Cl32      1.0  0.022179105525826154  0.2909219533791931  0.09022561511105105  1.0000
  Cl  Cl33      1.0  0.5221791056373275  0.20907804661427803  0.5902256150191137  1.0000
  Cl  Cl34      1.0  0.4778208947799947  0.20907804661427803  0.9097743849076989  1.0000
  Cl  Cl35      1.0  0.022179105720145746  0.7090780466077491  0.5902256152217383  1.0000
  Cl  Cl36      1.0  0.9778208949335025  0.7090780466077491  0.9097743852189  1.0000
  I   I1        1.0  0.9999999993971145  0.4529426449035915  0.24999999979746587  1.0000
  I   I2        1.0  0.4999999995506222  0.9529426448970626  0.250000000108667  1.0000
  I   I3        1.0  0.9999999995914339  0.5470573550833507  0.749999999908153  1.0000
  I   I4        1.0  0.49999999974494175  0.04705735508987964  0.7500000002193542  1.0000
  I   I5        1.0  0.8802397876164361  0.5655340761040588  0.4190023349173583  1.0000
  I   I6        1.0  0.11976021241224705  0.5655340761040588  0.08099766478808014  1.0000
  I   I7        1.0  0.38023978769925426  0.06553407611058762  0.41900233511998264  1.0000
  I   I8        1.0  0.6197602125657548  0.06553407611058762  0.08099766509928127  1.0000
  I   I9        1.0  0.11976021260656662  0.4344659238828835  0.5809976648987674  1.0000
  I   I10       1.0  0.8802397878107556  0.4344659238828835  0.9190023350280456  1.0000
  I   I11       1.0  0.6197602127600742  0.9344659238763546  0.5809976652099684  1.0000
  I   I12       1.0  0.3802397878935739  0.9344659238763546  0.9190023352306699  1.0000
