data_image0
_chemical_formula_structural       H26C28N4O2I4
_chemical_formula_sum              "H26 C28 N4 O2 I4"
_cell_length_a       5.02446201774509
_cell_length_b       7.960630139876883
_cell_length_c       19.811339806955633
_cell_angle_alpha    90.97737790465884
_cell_angle_beta     94.92247260599868
_cell_angle_gamma    96.1464166306791

_space_group_name_H-M_alt    "P 1"
_space_group_IT_number       1

loop_
  _space_group_symop_operation_xyz
  'x, y, z'

loop_
  _atom_site_type_symbol
  _atom_site_label
  _atom_site_symmetry_multiplicity
  _atom_site_fract_x
  _atom_site_fract_y
  _atom_site_fract_z
  _atom_site_occupancy
  H   H1        1.0  0.8227597314174272  0.42745746672917967  0.4475424258050578  1.0000
  H   H2        1.0  0.1772402671694221  0.5725425333655159  0.5524575741704093  1.0000
  H   H3        1.0  0.7215939722729175  0.16765029501851683  0.3845762076260375  1.0000
  H   H4        1.0  0.2784060283043307  0.8323497050702371  0.6154237923530297  1.0000
  H   H5        1.0  0.3741415559529576  0.17551467568565474  0.3939590792822666  1.0000
  H   H6        1.0  0.6258584426338917  0.8244853244090408  0.6060409206932005  1.0000
  H   H7        1.0  0.4162527800250326  0.2273819052887022  0.27704685259284484  1.0000
  H   H8        1.0  0.5837472185618168  0.7726180948059935  0.7229531473826222  1.0000
  H   H9        1.0  0.38871231160791414  0.4266051084501039  0.3145476938500057  1.0000
  H   H10       1.0  0.6112876869789352  0.5733948916445917  0.6854523061254614  1.0000
  H   H11       1.0  0.10899992113418767  0.6312192528310261  0.21269984302533373  1.0000
  H   H12       1.0  0.8910000794430607  0.36878074725772775  0.7873001569537335  1.0000
  H   H13       1.0  0.1290201743693235  0.4231238317359978  0.18170829239613281  1.0000
  H   H14       1.0  0.8709798262079248  0.576876168352756  0.8182917075829345  1.0000
  H   H15       1.0  0.6135229900250578  0.5692339374539217  0.21533622618123258  1.0000
  H   H16       1.0  0.3864770105521903  0.43076606263483214  0.7846637737978346  1.0000
  H   H17       1.0  0.6238650361711473  0.36520786046066944  0.17992514331801518  1.0000
  H   H18       1.0  0.376134964406101  0.6347921396280845  0.820074856661052  1.0000
  H   H19       1.0  0.8008185579310155  0.683623434555171  0.10906280725846769  1.0000
  H   H20       1.0  0.19918144264623286  0.31637656553358273  0.8909371927205996  1.0000
  H   H21       1.0  0.8221125322326984  0.4771360401607263  0.07838095494829231  1.0000
  H   H22       1.0  0.17788746635415087  0.5228639599339693  0.9216190450271748  1.0000
  H   H23       1.0  0.8937946039107687  0.49366421723241605  0.3186247998146172  1.0000
  H   H24       1.0  0.10620539467608069  0.5063357828622796  0.6813752001608498  1.0000
  H   H25       1.0  0.9158438900591188  0.2917822224585669  0.2825103776493929  1.0000
  H   H26       1.0  0.08415611051812956  0.708217777630187  0.7174896223296742  1.0000
  C   C1        1.0  0.07474756367955315  0.07890206229896767  0.11906422378707071  1.0000
  C   C2        1.0  0.9252524368976951  0.9210979377897861  0.8809357761919966  1.0000
  C   C3        1.0  0.7475518929404705  0.9695402091222357  0.20548180125218887  1.0000
  C   C4        1.0  0.2524481056463789  0.030459790972459908  0.7945181987232782  1.0000
  C   C5        1.0  0.26210999953455877  0.8522250973276175  0.3386314241083223  1.0000
  C   C6        1.0  0.7378900010426894  0.14777490276113628  0.6613685758707448  1.0000
  C   C7        1.0  0.9195810246821672  0.024784554415950497  0.1606339324163017  1.0000
  C   C8        1.0  0.08041897589508118  0.9752154456728034  0.8393660675627655  1.0000
  C   C9        1.0  0.586311494411588  0.9229749105969063  0.2469672621564453  1.0000
  C   C10       1.0  0.41368850433758364  0.07702508952739755  0.7530327383258145  1.0000
  C   C11       1.0  0.4159379476169664  0.8815464094631761  0.29399584581551014  1.0000
  C   C12       1.0  0.5840620509698831  0.11845359063151956  0.7060041541599571  1.0000
  C   C13       1.0  0.4432470640644512  0.4299454514827616  0.4740199639298643  1.0000
  C   C14       1.0  0.556752936512797  0.5700545486059923  0.525980036049203  1.0000
  C   C15       1.0  0.5597604252169635  0.2505332727535798  0.3823337335355985  1.0000
  C   C16       1.0  0.4402395733698859  0.7494667273411159  0.6176662664398685  1.0000
  C   C17       1.0  0.1665037307924542  0.6430103978907812  0.07520348057642168  1.0000
  C   C18       1.0  0.833496269784794  0.35698960219797254  0.9247965194026454  1.0000
  C   C19       1.0  0.522351564370463  0.32608837034567545  0.312023965279527  1.0000
  C   C20       1.0  0.4776484362067852  0.6739116297430784  0.6879760346995402  1.0000
  C   C21       1.0  0.9982375539491719  0.5253323845253323  0.18226192452186904  1.0000
  C   C22       1.0  0.001762446628076226  0.4746676155634216  0.8177380754571981  1.0000
  C   C23       1.0  0.7392079565108156  0.46421991338284496  0.21346839799062392  1.0000
  C   C24       1.0  0.26079204406643264  0.5357800867059089  0.7865316019884432  1.0000
  C   C25       1.0  0.9333439087679918  0.5820801329726979  0.10951552645123586  1.0000
  C   C26       1.0  0.06665609180925652  0.41791986711605583  0.8904844735278311  1.0000
  C   C27       1.0  0.7851909143114261  0.39427822746311936  0.2841594362989915  1.0000
  C   C28       1.0  0.21480908626582226  0.6057217726256344  0.7158405636800756  1.0000
  N   N1        1.0  0.6262481001117063  0.37963770475620323  0.4356382176048165  1.0000
  N   N2        1.0  0.373751898475143  0.6203622953384924  0.5643617823706506  1.0000
  N   N3        1.0  0.35235258189496915  0.6921722605343039  0.04697526607711934  1.0000
  N   N4        1.0  0.6476474186822792  0.30782773955445  0.9530247339019479  1.0000
  O   O1        1.0  0.20032059816263173  0.37102366803862663  0.4699122562508982  1.0000
  O   O2        1.0  0.7996794004242176  0.6289763320560691  0.530087743724569  1.0000
  I   I1        1.0  0.31088530826472965  0.1713813221795792  0.0502810683366082  1.0000
  I   I2        1.0  0.6891146923125187  0.8286186779091748  0.9497189316424589  1.0000
  I   I3        1.0  0.046786727836012856  0.8013873445421037  0.4162395491676342  1.0000
  I   I4        1.0  0.9532132727412355  0.1986126555466501  0.583760450811433  1.0000
