data_image0
_chemical_formula_structural       H64C68N8O8S4Cl8
_chemical_formula_sum              "H64 C68 N8 O8 S4 Cl8"
_cell_length_a       10.631771771361295
_cell_length_b       22.002211161605633
_cell_length_c       7.211151166745323
_cell_angle_alpha    90.0
_cell_angle_beta     100.08916365515195
_cell_angle_gamma    90.0

_space_group_name_H-M_alt    "P 1"
_space_group_IT_number       1

loop_
  _space_group_symop_operation_xyz
  'x, y, z'

loop_
  _atom_site_type_symbol
  _atom_site_label
  _atom_site_symmetry_multiplicity
  _atom_site_fract_x
  _atom_site_fract_y
  _atom_site_fract_z
  _atom_site_occupancy
  H   H1        1.0  0.35728060039608867  0.913361143677592  0.7257111511785869  1.0000
  H   H2        1.0  0.6427193998216978  0.41336114371407995  0.7742888479827196  1.0000
  H   H3        1.0  0.6427193997115396  0.08663885624943206  0.2742888484673853  1.0000
  H   H4        1.0  0.3572806002859304  0.5866388562129441  0.22571115166325265  1.0000
  H   H5        1.0  0.39359924914435473  0.6683222023457265  0.9638115467118719  1.0000
  H   H6        1.0  0.6064007501399306  0.1683222023822144  0.5361884525032142  1.0000
  H   H7        1.0  0.6064007500297722  0.3316777975812976  0.03618845298787999  1.0000
  H   H8        1.0  0.39359924996769763  0.8316777975448096  0.46381154714275796  1.0000
  H   H9        1.0  0.5663912407308527  0.8404322135707825  0.14400650152672748  1.0000
  H   H10       1.0  0.4336087592666172  0.3404322136072705  0.35599349860391044  1.0000
  H   H11       1.0  0.4336087593767755  0.15956778635624153  0.8559934981192447  1.0000
  H   H12       1.0  0.5663912410441604  0.6595677863197535  0.6440065024495567  1.0000
  H   H13       1.0  0.37149144955604707  0.8945147028833323  0.003797936083569318  1.0000
  H   H14       1.0  0.6285085502382735  0.39451470291982027  0.49620206263957367  1.0000
  H   H15       1.0  0.6285085505515812  0.10548529704369174  0.9962020635624028  1.0000
  H   H16       1.0  0.37149144986935473  0.6054852970072038  0.5037979370063985  1.0000
  H   H17       1.0  0.9622231420400034  0.9056364823355272  0.8912863725385503  1.0000
  H   H18       1.0  0.037776858380932504  0.4056364823720153  0.6087136280302513  1.0000
  H   H19       1.0  0.03777685827077422  0.09436351759149679  0.108713628514917  1.0000
  H   H20       1.0  0.9622231417266957  0.5943635175550088  0.39128637161572094  1.0000
  H   H21       1.0  0.11584293708566175  0.994166138545674  0.24907321519782566  1.0000
  H   H22       1.0  0.8841570629118082  0.494166138582162  0.2509267849328123  1.0000
  H   H23       1.0  0.8841570630219663  0.0058338613813500445  0.7509267844481465  1.0000
  H   H24       1.0  0.11584293719582002  0.5058338613448621  0.7490732147131599  1.0000
  H   H25       1.0  0.9280091568135282  0.9395562040634201  0.3419363122417427  1.0000
  H   H26       1.0  0.07199084318394147  0.43955620409990803  0.1580636878888952  1.0000
  H   H27       1.0  0.07199084329409974  0.06044379586360399  0.6580636874042294  1.0000
  H   H28       1.0  0.928009157126836  0.560443795827116  0.8419363131645721  1.0000
  H   H29       1.0  0.5798350629248837  0.7264208720935499  0.11628814420483695  1.0000
  H   H30       1.0  0.4201649368694368  0.2264208721300378  0.3837118545183061  1.0000
  H   H31       1.0  0.42016493718274445  0.2735791278334742  0.8837118554411353  1.0000
  H   H32       1.0  0.5798350632381913  0.7735791277969862  0.6162881451276662  1.0000
  H   H33       1.0  0.7531755797938926  0.8641720211820956  0.9413040577419359  1.0000
  H   H34       1.0  0.24682441949039274  0.36417202121858344  0.5586959414731502  1.0000
  H   H35       1.0  0.2468244193802345  0.13582797874492858  0.05869594195781585  1.0000
  H   H36       1.0  0.7531755806172353  0.6358279787084405  0.44130405817282214  1.0000
  H   H37       1.0  0.7172770742323904  0.7505256621123588  0.923822157257975  1.0000
  H   H38       1.0  0.28272292505189495  0.25052566214884686  0.5761778419571111  1.0000
  H   H39       1.0  0.2827229258752378  0.2494743378146652  0.07617784238799727  1.0000
  H   H40       1.0  0.7172770741222321  0.7494743377781772  0.42382215774264065  1.0000
  H   H41       1.0  0.8854557883415582  0.6816696894615882  0.8704906164547284  1.0000
  H   H42       1.0  0.11454421207937772  0.18166968949807613  0.6295093841140731  1.0000
  H   H43       1.0  0.11454421176607  0.3183303104654359  0.12950938319124386  1.0000
  H   H44       1.0  0.8854557880282505  0.8183303108834477  0.3704906155318991  1.0000
  H   H45       1.0  0.3311314728372378  0.9826573848054193  0.454151870984485  1.0000
  H   H46       1.0  0.668868527160232  0.48265738484190734  0.04584812914615294  1.0000
  H   H47       1.0  0.6688685272703904  0.017342615121604628  0.5458481286614872  1.0000
  H   H48       1.0  0.3311314729473961  0.5173426150851167  0.9541518704998193  1.0000
  H   H49       1.0  0.54518902056549  0.5367871348589547  0.2749204688496073  1.0000
  H   H50       1.0  0.45481097943197996  0.036787134895442636  0.22507953128103061  1.0000
  H   H51       1.0  0.45481097974528756  0.4632128650680694  0.7250795322038599  1.0000
  H   H52       1.0  0.5451890206756482  0.9632128650315814  0.7749204683649417  1.0000
  H   H53       1.0  0.6009234134799802  0.5927219589073477  0.17610693984475354  1.0000
  H   H54       1.0  0.39907658651748973  0.09272195894383566  0.3238930602858844  1.0000
  H   H55       1.0  0.39907658662764794  0.4072780410196764  0.8238930598012186  1.0000
  H   H56       1.0  0.6009234135901386  0.9072780409831884  0.6761069393600879  1.0000
  H   H57       1.0  0.43426450621348744  0.43508984209300744  0.1991088739897753  1.0000
  H   H58       1.0  0.5657354937839825  0.9350898420565195  0.30089112614086266  1.0000
  H   H59       1.0  0.5657354938941408  0.5649101578340165  0.800891125656197  1.0000
  H   H60       1.0  0.43426450632364566  0.0649101578705046  0.6991088735051095  1.0000
  H   H61       1.0  0.4204546305119119  0.4716230361477336  0.3756282758899738  1.0000
  H   H62       1.0  0.579545369485558  0.9716230361112456  0.12437172424066421  1.0000
  H   H63       1.0  0.5795453695957163  0.5283769637792906  0.6243717237559985  1.0000
  H   H64       1.0  0.4204546308252196  0.02837696381577846  0.8756282768128031  1.0000
  C   C1        1.0  0.2747224000223305  0.7480177855360133  0.8941424761183203  1.0000
  C   C2        1.0  0.7252776003986053  0.24801778557250126  0.6058575244504812  1.0000
  C   C3        1.0  0.7252776000852976  0.25198221439101076  0.10585752352765197  1.0000
  C   C4        1.0  0.2747223997090228  0.7519822143545227  0.394142475195491  1.0000
  C   C5        1.0  0.021387814052414404  0.7538474300684604  0.8443584285242633  1.0000
  C   C6        1.0  0.9786121863685215  0.2538474301049483  0.6556415720445381  1.0000
  C   C7        1.0  0.9786121862583632  0.24615256985856368  0.1556415725292038  1.0000
  C   C8        1.0  0.02138781373910673  0.7461525698220758  0.34435842760143415  1.0000
  C   C9        1.0  0.2704322509392957  0.812583546202785  0.8961685413710035  1.0000
  C   C10       1.0  0.7295677485481391  0.31258354623927287  0.6038314592515774  1.0000
  C   C11       1.0  0.7295677491683326  0.18741645372423915  0.10383145827496865  1.0000
  C   C12       1.0  0.2704322508291374  0.6874164536877512  0.3961685418556693  1.0000
  C   C13       1.0  0.04015039100657446  0.817659732372423  0.8453705009585124  1.0000
  C   C14       1.0  0.9598496092112119  0.317659732408911  0.654629498202794  1.0000
  C   C15       1.0  0.9598496091010538  0.182340267554601  0.1546294986874597  1.0000
  C   C16       1.0  0.040150390896416185  0.6823402679726128  0.34537050144317827  1.0000
  C   C17       1.0  0.26087135305972037  0.9226175601579225  0.6499976950528622  1.0000
  C   C18       1.0  0.7391286473612155  0.42261756019441055  0.8500023055159392  1.0000
  C   C19       1.0  0.7391286472510572  0.07738243976910147  0.3500023060006051  1.0000
  C   C20       1.0  0.26087135274641265  0.5773824397326135  0.1499976941300329  1.0000
  C   C21       1.0  0.1509300461530516  0.8884771192502924  0.6777961039880115  1.0000
  C   C22       1.0  0.8490699540647347  0.3884771192867803  0.822203895173295  1.0000
  C   C23       1.0  0.8490699539545766  0.1115228811312315  0.3222038956579607  1.0000
  C   C24       1.0  0.15093004604289337  0.6115228810947435  0.17779610447267727  1.0000
  C   C25       1.0  0.38857629182475995  0.7177675863577854  0.9687328642057406  1.0000
  C   C26       1.0  0.6114237085961759  0.21776758639427338  0.5312671363630609  1.0000
  C   C27       1.0  0.6114237082828682  0.28223241356923867  0.03126713544023163  1.0000
  C   C28       1.0  0.38857629171460173  0.7822324135327507  0.4687328646904063  1.0000
  C   C29       1.0  0.4866753546838712  0.8144746720398375  0.06676102735896706  1.0000
  C   C30       1.0  0.5133246453135988  0.3144746720763255  0.43323897277167084  1.0000
  C   C31       1.0  0.5133246454237571  0.1855253278871865  0.9332389722870051  1.0000
  C   C32       1.0  0.4866753547940294  0.6855253278506985  0.5667610268743013  1.0000
  C   C33       1.0  0.37633123333575796  0.8454049096873858  0.9868793612132445  1.0000
  C   C34       1.0  0.6236687659485273  0.3454049097238737  0.5131206380018416  1.0000
  C   C35       1.0  0.6236687658383692  0.1545950902396383  0.013120638486507298  1.0000
  C   C36       1.0  0.3763312341591008  0.6545950902031503  0.48687936164413065  1.0000
  C   C37       1.0  0.9434870622948772  0.8570090620211991  0.8828289054487679  1.0000
  C   C38       1.0  0.056512938126058655  0.35700906205768707  0.6171710951200337  1.0000
  C   C39       1.0  0.05651293781275097  0.14299093790582498  0.11717109419720441  1.0000
  C   C40       1.0  0.9434870619815695  0.642990937869337  0.3828289045259386  1.0000
  C   C41       1.0  0.12890992601450038  0.9667970225246979  0.3769214924444253  1.0000
  C   C42       1.0  0.8710900739829694  0.4667970225611859  0.12307850768621269  1.0000
  C   C43       1.0  0.8710900740931278  0.033202977856825924  0.6230785072015469  1.0000
  C   C44       1.0  0.12890992632780807  0.533202977820338  0.8769214933672547  1.0000
  C   C45       1.0  0.02329008035520326  0.9354111720332237  0.42810124673974825  1.0000
  C   C46       1.0  0.9767099196422666  0.4354111720697117  0.07189875339088975  1.0000
  C   C47       1.0  0.9767099197524249  0.06458882834830015  0.5718987529062239  1.0000
  C   C48       1.0  0.023290080465361542  0.5645888283118122  0.9281012462550825  1.0000
  C   C49       1.0  0.49366439793236877  0.7510455975822976  0.05490462184273007  1.0000
  C   C50       1.0  0.5063356020651011  0.25104559761878553  0.4450953782879079  1.0000
  C   C51       1.0  0.5063356012417582  0.24895440234472646  0.9450953778570217  1.0000
  C   C52       1.0  0.4936643982456765  0.7489544023082385  0.5549046227655594  1.0000
  C   C53       1.0  0.8276401204393717  0.8334112633187658  0.9113816608429695  1.0000
  C   C54       1.0  0.17235987998156413  0.33341126335525384  0.588618339725832  1.0000
  C   C55       1.0  0.17235987966825644  0.16658873660825824  0.08861833880300278  1.0000
  C   C56       1.0  0.8276401203292135  0.6665887365717703  0.4113816613276352  1.0000
  C   C57       1.0  0.8072852249364675  0.7702205998991652  0.9008787622142832  1.0000
  C   C58       1.0  0.1927147754844684  0.2702205999356533  0.5991212383545184  1.0000
  C   C59       1.0  0.19271477517116067  0.22977940048235854  0.099121237431689  1.0000
  C   C60       1.0  0.8072852246231598  0.7297794004458706  0.40087876129145394  1.0000
  C   C61       1.0  0.9024596011538967  0.7304926483046761  0.868051985435181  1.0000
  C   C62       1.0  0.097540398333538  0.23049264834116398  0.6319480151874001  1.0000
  C   C63       1.0  0.09754039915688086  0.26950735162234807  0.13194801561828626  1.0000
  C   C64       1.0  0.902459600840589  0.7695073515858601  0.3680519845123517  1.0000
  C   C65       1.0  0.24733161895304698  0.9597409867081291  0.48773269695212035  1.0000
  C   C66       1.0  0.7526683810444229  0.459740986744617  0.012267303178517642  1.0000
  C   C67       1.0  0.7526683813577305  0.04025901321889499  0.5122673041013469  1.0000
  C   C68       1.0  0.24733161812970417  0.540259013182407  0.9877326965212341  1.0000
  N   N1        1.0  0.15614851630758664  0.841322422734586  0.8064866526487029  1.0000
  N   N2        1.0  0.8438514839101998  0.34132242277107394  0.6935133465126035  1.0000
  N   N3        1.0  0.8438514838000416  0.15867757764693785  0.1935133469972694  1.0000
  N   N4        1.0  0.1561485161974283  0.6586775776104499  0.30648665313336854  1.0000
  N   N5        1.0  0.034526195192039255  0.897236273436409  0.5718419010548419  1.0000
  N   N6        1.0  0.9654738052288967  0.397236273472897  0.9281580995139596  1.0000
  N   N7        1.0  0.965473804915589  0.10276372649061509  0.42815809859113024  1.0000
  N   N8        1.0  0.03452619508188098  0.6027637264541271  0.0718419015395077  1.0000
  O   O1        1.0  0.5575062494358045  0.581449841383415  0.282296504168111  1.0000
  O   O2        1.0  0.4424937505616653  0.08144984141990307  0.21770349596252694  1.0000
  O   O3        1.0  0.4424937506718236  0.418550158543609  0.7177034954778612  1.0000
  O   O4        1.0  0.5575062495459628  0.918550158507121  0.7822965036834453  1.0000
  O   O5        1.0  0.4837659109761814  0.4623794124725412  0.29561119962916016  1.0000
  O   O6        1.0  0.5162340890212884  0.9623794124360533  0.20438880050147779  1.0000
  O   O7        1.0  0.5162340891314467  0.5376205874544829  0.7043888000168119  1.0000
  O   O8        1.0  0.4837659110863397  0.03762058749097085  0.7956111991444944  1.0000
  S   S1        1.0  0.1414887504695583  0.7044979373277152  0.8065024964912301  1.0000
  S   S2        1.0  0.8585112490178765  0.20449793736420316  0.693497504131351  1.0000
  S   S3        1.0  0.85851124963807  0.2955020625993089  0.19349750315474218  1.0000
  S   S4        1.0  0.14148875015625062  0.7955020625628209  0.3065024955684008  1.0000
  Cl  Cl1       1.0  0.6919952036933379  0.8765722280520349  0.46374640861070066  1.0000
  Cl  Cl2       1.0  0.3080047963041319  0.3765722280885229  0.0362535915199373  1.0000
  Cl  Cl3       1.0  0.3080047966174396  0.12342777187498916  0.5362535924427666  1.0000
  Cl  Cl4       1.0  0.6919952038034962  0.6234277718385012  0.963746408126035  1.0000
  Cl  Cl5       1.0  0.784919770599749  0.4919736921209546  0.5905104196937547  1.0000
  Cl  Cl6       1.0  0.21508022868453627  0.9919736920844667  0.9094895795213312  1.0000
  Cl  Cl7       1.0  0.21508022857437803  0.5080263082605693  0.40948958000599706  1.0000
  Cl  Cl8       1.0  0.784919771423092  0.008026307842557435  0.09051042012464093  1.0000
