data_image0
_chemical_formula_structural       H108C40N12O40S16
_chemical_formula_sum              "H108 C40 N12 O40 S16"
_cell_length_a       9.125448388303631
_cell_length_b       14.176907099133434
_cell_length_c       16.14084971914993
_cell_angle_alpha    90.0
_cell_angle_beta     106.61020951252866
_cell_angle_gamma    90.0

_space_group_name_H-M_alt    "P 1"
_space_group_IT_number       1

loop_
  _space_group_symop_operation_xyz
  'x, y, z'

loop_
  _atom_site_type_symbol
  _atom_site_label
  _atom_site_symmetry_multiplicity
  _atom_site_fract_x
  _atom_site_fract_y
  _atom_site_fract_z
  _atom_site_occupancy
  H   H1        1.0  0.16636910882663425  0.03171348354448072  0.8339383235035915  1.0000
  H   H2        1.0  0.33363089120835343  0.5317134835750433  0.6660616764423476  1.0000
  H   H3        1.0  0.8336308905369966  0.9682865165166445  0.16606167674741845  1.0000
  H   H4        1.0  0.6663691092946911  0.46828651648608194  0.3339383233710262  1.0000
  H   H5        1.0  0.25562010382456624  0.0482375969044617  0.7486512060273395  1.0000
  H   H6        1.0  0.24437989621042147  0.5482375969350244  0.7513487939185997  1.0000
  H   H7        1.0  0.7443798966784783  0.9517624031566636  0.25134879378603425  1.0000
  H   H8        1.0  0.7556201031532094  0.45176240312610094  0.24865120633241042  1.0000
  H   H9        1.0  0.1121989494366871  0.1304862744084057  0.7621207557798241  1.0000
  H   H10       1.0  0.38780105059830056  0.6304862744389683  0.7378792441661151  1.0000
  H   H11       1.0  0.8878010499269439  0.8695137256527196  0.23787924447118589  1.0000
  H   H12       1.0  0.6121989499047439  0.3695137256221569  0.26212075564725873  1.0000
  H   H13       1.0  0.35428400767247  0.3989777248625507  0.9370960899759233  1.0000
  H   H14       1.0  0.14571599236251767  0.8989777248931133  0.5629039099700159  1.0000
  H   H15       1.0  0.6457159928305743  0.6010222751985745  0.06290390983745049  1.0000
  H   H16       1.0  0.8542840070011133  0.10102227516801196  0.43709609028099417  1.0000
  H   H17       1.0  0.17425141453793705  0.4436647744122175  0.8711043042374337  1.0000
  H   H18       1.0  0.3257485854970506  0.9436647744427802  0.6288956957085055  1.0000
  H   H19       1.0  0.8257485859692416  0.5563352256489077  0.12889569619615035  1.0000
  H   H20       1.0  0.6742514138624461  0.05633522561834508  0.37110430392229427  1.0000
  H   H21       1.0  0.28457660477466773  0.36637484281162347  0.8238575635569464  1.0000
  H   H22       1.0  0.21542339526031995  0.866374842842186  0.6761424363889927  1.0000
  H   H23       1.0  0.7154233957325109  0.6336251572495019  0.17614243687663755  1.0000
  H   H24       1.0  0.7845766052427245  0.13362515721893917  0.323857563424381  1.0000
  H   H25       1.0  0.6632181337495656  0.7766581196453651  0.8902738091485936  1.0000
  H   H26       1.0  0.8367818658655874  0.2766581196148025  0.6097261910091033  1.0000
  H   H27       1.0  0.33678186675761296  0.22334188041576014  0.10972619128499034  1.0000
  H   H28       1.0  0.1632181334980435  0.7233418804463227  0.3902738092419067  1.0000
  H   H29       1.0  0.5588252551759298  0.8412915360593027  0.7957774953211305  1.0000
  H   H30       1.0  0.941174745578637  0.34129153673411267  0.7042225043989301  1.0000
  H   H31       1.0  0.4411747453271147  0.15870846329645  0.20422250449224325  1.0000
  H   H32       1.0  0.05882525492440753  0.6587084633270126  0.2957774954144436  1.0000
  H   H33       1.0  0.3948878873204663  0.7266207627635274  0.8456984630692118  1.0000
  H   H34       1.0  0.10511211271452135  0.22662076273296466  0.6543015368767273  1.0000
  H   H35       1.0  0.6051121120390303  0.27337923729759794  0.15430153656158802  1.0000
  H   H36       1.0  0.894887887788523  0.7733792373281605  0.3456984629366464  1.0000
  H   H37       1.0  0.44489373825952405  0.7816533826815691  0.9492881783036751  1.0000
  H   H38       1.0  0.05510626177959786  0.28165338265100653  0.5507118222624743  1.0000
  H   H39       1.0  0.5551062622476546  0.2183466173795561  0.05071182212990886  1.0000
  H   H40       1.0  0.9448937387275809  0.7183466174101187  0.4492881781711097  1.0000
  H   H41       1.0  0.1406263863209925  0.7641695035627485  0.8401106238796702  1.0000
  H   H42       1.0  0.3593736137139952  0.26416950423755836  0.659889376066269  1.0000
  H   H43       1.0  0.8593736130385041  0.2358304957930043  0.1598893757511297  1.0000
  H   H44       1.0  0.6406263867931835  0.735830495823567  0.34011062436731493  1.0000
  H   H45       1.0  0.08183402951629169  0.8839654116634521  0.8208769043377231  1.0000
  H   H46       1.0  0.418165970518696  0.3839654116328894  0.679123095608216  1.0000
  H   H47       1.0  0.9181659709867528  0.11603458839767326  0.17912309547565058  1.0000
  H   H48       1.0  0.5818340288408007  0.616034588428236  0.32087690402258384  1.0000
  H   H49       1.0  0.06451281064910087  0.8092101062509773  0.9633275726277384  1.0000
  H   H50       1.0  0.43548718939002107  0.30921010622041467  0.536672427938411  1.0000
  H   H51       1.0  0.93548718871453  0.19078989381014794  0.036672427623271685  1.0000
  H   H52       1.0  0.5645128111171577  0.6907898938407107  0.4633275724951729  1.0000
  H   H53       1.0  0.2673040873730023  0.8096674768152803  0.9987535890163695  1.0000
  H   H54       1.0  0.23269591266198533  0.30966747678471757  0.5012464109295696  1.0000
  H   H55       1.0  0.7326959131300421  0.19033252324584504  0.001246410797004251  1.0000
  H   H56       1.0  0.7673040867016455  0.6903325232764077  0.49875358932144037  1.0000
  H   H57       1.0  0.2701619857729997  0.9062238738085053  0.10703544934956774  1.0000
  H   H58       1.0  0.22983801333497475  0.4062238737779428  0.39296455037454525  1.0000
  H   H59       1.0  0.7298380135864969  0.0937761262526199  0.8929645502812321  1.0000
  H   H60       1.0  0.7701619860286562  0.5937761262831825  0.6070354498764648  1.0000
  H   H61       1.0  0.07140538655180156  0.9353269868581225  0.08181312534929974  1.0000
  H   H62       1.0  0.4285946136997207  0.4353269868275599  0.4181868745573871  1.0000
  H   H63       1.0  0.9285946128076951  0.06467301320300275  0.9181868742815  1.0000
  H   H64       1.0  0.571405386807458  0.5646730132335653  0.5818131258761967  1.0000
  H   H65       1.0  0.1379037215166874  0.10304126420418543  0.0518055058200328  1.0000
  H   H66       1.0  0.3620962787348348  0.6030412642347481  0.44819449408665407  1.0000
  H   H67       1.0  0.8620962789863571  0.8969587358569399  0.9481944939933409  1.0000
  H   H68       1.0  0.6379037217682095  0.3969587358263772  0.5518055057267196  1.0000
  H   H69       1.0  0.21690824907835388  0.06387369499341297  0.16109320286667295  1.0000
  H   H70       1.0  0.2830917500296205  0.5638736950239757  0.33890679685744  1.0000
  H   H71       1.0  0.783091750285277  0.9361263050677123  0.838906797384337  1.0000
  H   H72       1.0  0.7169082493298761  0.43612630503714966  0.6610932027733598  1.0000
  H   H73       1.0  0.6291914493694548  0.9103961964164186  0.9755640925106976  1.0000
  H   H74       1.0  0.8708085502456984  0.41039619638585595  0.5244359076469993  1.0000
  H   H75       1.0  0.3708085499900419  0.08960380364470666  0.024435907120102254  1.0000
  H   H76       1.0  0.12919144911793254  0.5896038036752693  0.4755640926040107  1.0000
  H   H77       1.0  0.5481068082480506  0.9732607658015475  0.8884949457276126  1.0000
  H   H78       1.0  0.9518931925065159  0.47326076577098486  0.611505053992448  1.0000
  H   H79       1.0  0.45189319225499386  0.02673923425957777  0.11150505408576115  1.0000
  H   H80       1.0  0.048106807996528375  0.5267392342901405  0.3884949458209257  1.0000
  H   H81       1.0  0.1512981559290177  0.40679816476701874  0.05156144046930822  1.0000
  H   H82       1.0  0.3487018443266387  0.9067981647975815  0.4484385600575888  1.0000
  H   H83       1.0  0.8487018445781609  0.5932018352941065  0.9484385599642757  1.0000
  H   H84       1.0  0.6512981550369922  0.09320183526354388  0.5515614401934212  1.0000
  H   H85       1.0  0.3792184644572508  0.6718698248775448  0.117152819351028  1.0000
  H   H86       1.0  0.12078153579427144  0.17186982484698207  0.38284718055565886  1.0000
  H   H87       1.0  0.6207815349022459  0.3281301751835805  0.8828471802797719  1.0000
  H   H88       1.0  0.8792184647129073  0.8281301752141431  0.617152819877925  1.0000
  H   H89       1.0  0.1920460534053131  0.6546381037206125  0.1330429334552869  1.0000
  H   H90       1.0  0.30795394684620914  0.15463810369004988  0.36695706645139997  1.0000
  H   H91       1.0  0.8079539470977314  0.34536189634051273  0.8669570663580869  1.0000
  H   H92       1.0  0.6920460536609696  0.8453618963710754  0.6330429339821839  1.0000
  H   H93       1.0  0.22058486782506867  0.628766239890566  0.029370915895970736  1.0000
  H   H94       1.0  0.2794151312829058  0.12876623986000335  0.4706290838281423  1.0000
  H   H95       1.0  0.779415131534428  0.37123376017055926  0.9706290837348291  1.0000
  H   H96       1.0  0.7205848680765908  0.8712337602011219  0.5293709158026576  1.0000
  H   H97       1.0  0.10024107285417061  0.29555483933841387  0.2679091338644202  1.0000
  H   H98       1.0  0.3997589262538038  0.7955548393689764  0.23209086585969274  1.0000
  H   H99       1.0  0.8997589265053261  0.7044451607227115  0.7320908657663796  1.0000
  H   H100      1.0  0.6002410731056929  0.2044451606921488  0.767909133771107  1.0000
  H   H101      1.0  0.2806067355541662  0.3416150812116158  0.25814067184630113  1.0000
  H   H102      1.0  0.21939326355380828  0.8416150812421784  0.24185932787781186  1.0000
  H   H103      1.0  0.7193932638053304  0.6583849188495094  0.7418593277844987  1.0000
  H   H104      1.0  0.7806067358098226  0.15838491881894684  0.7581406723731982  1.0000
  H   H105      1.0  0.1634331523786847  0.26628073412646897  0.1748945470988785  1.0000
  H   H106      1.0  0.3365668478728375  0.7662807341570316  0.32510545280780834  1.0000
  H   H107      1.0  0.8365668481243598  0.7337192659346563  0.8251054527144952  1.0000
  H   H108      1.0  0.6634331526343411  0.23371926590409367  0.6748945476257755  1.0000
  C   C1        1.0  0.2056659174007325  0.0832134711577612  0.7946488575060136  1.0000
  C   C2        1.0  0.2943340826342552  0.5832134711883239  0.7053511424399255  1.0000
  C   C3        1.0  0.7943340831064462  0.9167865289033641  0.20535114292757023  1.0000
  C   C4        1.0  0.7056659167252416  0.41678652887280143  0.29464885719087436  1.0000
  C   C5        1.0  0.25358979037292917  0.3839864387862674  0.8827339421211053  1.0000
  C   C6        1.0  0.2464102096620585  0.88398643881683  0.6172660578248338  1.0000
  C   C7        1.0  0.7464102101342495  0.6160135612748578  0.11726605831247862  1.0000
  C   C8        1.0  0.7535897896974382  0.11601356124429521  0.38273394180596604  1.0000
  C   C9        1.0  0.5729687700574765  0.8289019366373854  0.8645943843562747  1.0000
  C   C10       1.0  0.9270312307012244  0.3289019366068228  0.6354056159839961  1.0000
  C   C11       1.0  0.4270312304455679  0.17109806342373984  0.13540561545709903  1.0000
  C   C12       1.0  0.07296876980595433  0.6710980634543025  0.3645943844495878  1.0000
  C   C13       1.0  0.4265682539738534  0.7944760652828478  0.8796921662909892  1.0000
  C   C14       1.0  0.07343174606526848  0.2944760652522851  0.6203078342751601  1.0000
  C   C15       1.0  0.5734317465333252  0.20552393477827757  0.12030783414259473  1.0000
  C   C16       1.0  0.9265682532983625  0.7055239348088402  0.3796921659758499  1.0000
  C   C17       1.0  0.1684592802862129  0.8371169280445816  0.8619502116155265  1.0000
  C   C18       1.0  0.3315407197487748  0.33711692801401894  0.6380497883304126  1.0000
  C   C19       1.0  0.8315407190732838  0.16288307201654365  0.13804978801527334  1.0000
  C   C20       1.0  0.6684592807584038  0.6628830720471063  0.36195021210317135  1.0000
  C   C21       1.0  0.16699276745808947  0.8452298245456125  0.9551172973741717  1.0000
  C   C22       1.0  0.33300723257689824  0.3452298245150499  0.5448827025717674  1.0000
  C   C23       1.0  0.8330072319014072  0.15477017551551275  0.04488270225662815  1.0000
  C   C24       1.0  0.6669927679261463  0.6547701755460754  0.4551172972416063  1.0000
  C   C25       1.0  0.1800693834431434  0.9531657995294321  0.06818213623848746  1.0000
  C   C26       1.0  0.31993061680837886  0.4531657994988695  0.4318178636681994  1.0000
  C   C27       1.0  0.8199306159163533  0.04683420053169319  0.9318178633923124  1.0000
  C   C28       1.0  0.6800693836987999  0.5468342005622558  0.5681821367653845  1.0000
  C   C29       1.0  0.21868784264113666  0.054220520359266916  0.09409287068474494  1.0000
  C   C30       1.0  0.2813121576145198  0.5542205203898296  0.4059071298421521  1.0000
  C   C31       1.0  0.7813121578660419  0.9457794797018584  0.9059071297488389  1.0000
  C   C32       1.0  0.7186878417491112  0.4457794796712957  0.5940928704088579  1.0000
  C   C33       1.0  0.2737194013560722  0.6297532527772383  0.09944955091063123  1.0000
  C   C34       1.0  0.22628059889545  0.1297532527466756  0.4005504489960557  1.0000
  C   C35       1.0  0.7262805991469722  0.370246747283887  0.9005504489027425  1.0000
  C   C36       1.0  0.7737194016117288  0.8702467473144496  0.5994495514375283  1.0000
  C   C37       1.0  0.16378088951758663  0.32002159767819316  0.2236320869314231  1.0000
  C   C38       1.0  0.336219109594522  0.8200215977087557  0.27636791341290007  1.0000
  C   C39       1.0  0.8362191098460443  0.6799784023829322  0.7763679133195869  1.0000
  C   C40       1.0  0.6637808897691089  0.17997840235236948  0.7236320868381101  1.0000
  N   N1        1.0  0.2748420687687106  0.1997922692300871  0.9338093909278264  1.0000
  N   N2        1.0  0.22515793126627712  0.6997922692606496  0.5661906090181127  1.0000
  N   N3        1.0  0.7251579305907861  0.8002077308310382  0.06619060870297348  1.0000
  N   N4        1.0  0.7748420692367674  0.3002077308004755  0.43380939079526093  1.0000
  N   N5        1.0  0.6259122579942804  0.9190039568501073  0.9112589864381767  1.0000
  N   N6        1.0  0.8740877416208727  0.41900395681954455  0.5887410137195203  1.0000
  N   N7        1.0  0.3740877425128982  0.08099604321101804  0.08874101399540721  1.0000
  N   N8        1.0  0.12591225774275822  0.5809960432415806  0.4112589865314898  1.0000
  N   N9        1.0  0.15994870161994146  0.45491468025449744  0.10230936709796704  1.0000
  N   N10       1.0  0.340051297488033  0.9549146802850601  0.39769063262614596  1.0000
  N   N11       1.0  0.8400512977395552  0.5450853198066279  0.8976906325328328  1.0000
  N   N12       1.0  0.6599487018714636  0.04508531977606522  0.6023093670046539  1.0000
  O   O1        1.0  0.4623783243405728  0.08542138997821488  0.9193143477716981  1.0000
  O   O2        1.0  0.03762167569441491  0.5854213900087775  0.5806856521742411  1.0000
  O   O3        1.0  0.5376216761624717  0.9145786100829104  0.08068565204167565  1.0000
  O   O4        1.0  0.962378323669216  0.41457861005234775  0.41931434807676893  1.0000
  O   O5        1.0  0.4093093317874035  0.21869400556271637  0.8156535163356755  1.0000
  O   O6        1.0  0.0906906682475842  0.718694005593279  0.6843464836102636  1.0000
  O   O7        1.0  0.5906906675762273  0.7813059937930363  0.1843464839153345  1.0000
  O   O8        1.0  0.9093093322554602  0.28130599446784627  0.3156535162031101  1.0000
  O   O9        1.0  0.1200358673682604  0.3074613630124187  0.9904286207902935  1.0000
  O   O10       1.0  0.3799641326667273  0.8074613630429814  0.5095713791556458  1.0000
  O   O11       1.0  0.8799641331347842  0.6925386370487067  0.009571379023080293  1.0000
  O   O12       1.0  0.6200358678404514  0.19253863701814394  0.49042862127793824  1.0000
  O   O13       1.0  0.023348684020967066  0.26522412002190765  0.8359796638431968  1.0000
  O   O14       1.0  0.4766513160140206  0.7652241200524703  0.6640203361027424  1.0000
  O   O15       1.0  0.9766513153426638  0.7347758800392176  0.16402033640781336  1.0000
  O   O16       1.0  0.5233486844890238  0.234775880008655  0.3359796637106312  1.0000
  O   O17       1.0  0.31103491637656533  0.8636267222734634  0.8477291278547879  1.0000
  O   O18       1.0  0.18896508365842232  0.36362672224290066  0.6522708720911512  1.0000
  O   O19       1.0  0.6889650829870655  0.13637327778766192  0.15227087239622206  1.0000
  O   O20       1.0  0.8110349168446221  0.6363732778182245  0.3477291277222226  1.0000
  O   O21       1.0  0.16837951594402206  0.9424234987627642  0.9787537940561309  1.0000
  O   O22       1.0  0.3316204840909656  0.4424234987322016  0.5212462058898082  1.0000
  O   O23       1.0  0.8316204845590224  0.057576501298361046  0.021246205757242762  1.0000
  O   O24       1.0  0.668379516416213  0.5575765013289237  0.47875379454377576  1.0000
  O   O25       1.0  0.4195424752254916  0.4738298553434554  0.08281170018699585  1.0000
  O   O26       1.0  0.08045752503016484  0.973829855374018  0.4171883003399011  1.0000
  O   O27       1.0  0.580457525281687  0.5261701447176699  0.917188300246588  1.0000
  O   O28       1.0  0.9195424754770138  0.02617014468710726  0.5828117000936828  1.0000
  O   O29       1.0  0.38268653493441357  0.5114842912699369  0.22683114262864648  1.0000
  O   O30       1.0  0.11731346532124283  0.0114842912393742  0.2731688578982505  1.0000
  O   O31       1.0  0.6173134655727651  0.48851570879118844  0.7731688578049374  1.0000
  O   O32       1.0  0.8826865340423881  0.9885157088217511  0.7268311423527595  1.0000
  O   O33       1.0  0.9165828779512001  0.3873007152833513  0.11293735309532729  1.0000
  O   O34       1.0  0.5834171218804876  0.887300715313914  0.3870626470231173  1.0000
  O   O35       1.0  0.08341712255597854  0.6126992847777739  0.8870626473382566  1.0000
  O   O36       1.0  0.4165828774831434  0.11269928474721129  0.6129373532278927  1.0000
  O   O37       1.0  0.06344700842116464  0.4930536266564986  0.23043927352384036  1.0000
  O   O38       1.0  0.43655299068680986  0.9930536266870613  0.26956072620027255  1.0000
  O   O39       1.0  0.936552990938332  0.5069463726992542  0.7695607261069595  1.0000
  O   O40       1.0  0.5634470086726868  0.006946373374064044  0.7304392734305273  1.0000
  S   S1        1.0  0.3496772506241878  0.15114516763187208  0.8663110704459174  1.0000
  S   S2        1.0  0.15032274941079984  0.6511451676624347  0.6336889295000218  1.0000
  S   S3        1.0  0.6503227487353089  0.8488548324292532  0.13368892918488245  1.0000
  S   S4        1.0  0.8496772510922447  0.34885483239869053  0.366311070313352  1.0000
  S   S5        1.0  0.15622743323353983  0.2854435316323231  0.9094044738288244  1.0000
  S   S6        1.0  0.3437725668014478  0.7854435316628857  0.5905955261171149  1.0000
  S   S7        1.0  0.8437725672695046  0.7145564684288022  0.09059552598454942  1.0000
  S   S8        1.0  0.6562274337057308  0.21455646839823955  0.4094044743164691  1.0000
  S   S9        1.0  0.32734597360595474  0.5133072904487619  0.1334353201639935  1.0000
  S   S10       1.0  0.17265402550201972  0.013307290418199303  0.36656467956011946  1.0000
  S   S11       1.0  0.6726540257535419  0.48669270961236333  0.8665646794668063  1.0000
  S   S12       1.0  0.827345973857477  0.986692709642926  0.6334353200706804  1.0000
  S   S13       1.0  0.06174859389524595  0.4186796314947154  0.1690908477993355  1.0000
  S   S14       1.0  0.43825140635627624  0.918679631525278  0.3309091521073514  1.0000
  S   S15       1.0  0.9382514054642509  0.5813203685664099  0.8309091518314644  1.0000
  S   S16       1.0  0.5617485941467681  0.08132036853584726  0.6690908477060225  1.0000
