data_image0
_chemical_formula_structural       H160C80S32I16
_chemical_formula_sum              "H160 C80 S32 I16"
_cell_length_a       17.446030665327964
_cell_length_b       9.579832088386377
_cell_length_c       19.286487308642815
_cell_angle_alpha    90.0
_cell_angle_beta     90.0
_cell_angle_gamma    90.0

_space_group_name_H-M_alt    "P 1"
_space_group_IT_number       1

loop_
  _space_group_symop_operation_xyz
  'x, y, z'

loop_
  _atom_site_type_symbol
  _atom_site_label
  _atom_site_symmetry_multiplicity
  _atom_site_fract_x
  _atom_site_fract_y
  _atom_site_fract_z
  _atom_site_occupancy
  H   H1        1.0  0.2804343637732582  0.7025702243945785  0.4364629351778191  1.0000
  H   H2        1.0  0.21956563607404336  0.29742977577386115  0.9364629354722529  1.0000
  H   H3        1.0  0.7195656364945412  0.20257022483228845  0.0635370645981169  1.0000
  H   H4        1.0  0.7804343636205597  0.7974297753361511  0.5635370648925506  1.0000
  H   H5        1.0  0.7195656364945412  0.29742977577386115  0.5635370648925506  1.0000
  H   H6        1.0  0.7804343636205597  0.7025702243945785  0.0635370645981169  1.0000
  H   H7        1.0  0.2804343637732582  0.7974297753361511  0.9364629354722529  1.0000
  H   H8        1.0  0.21956563607404336  0.20257022483228845  0.4364629351778191  1.0000
  H   H9        1.0  0.32112787816739063  0.8237349785667483  0.3776761140291117  1.0000
  H   H10       1.0  0.1788721216799109  0.17626502160169127  0.8776761143235455  1.0000
  H   H11       1.0  0.6788721215272124  0.32373497796059864  0.12232388574682428  1.0000
  H   H12       1.0  0.8211278780146922  0.6762650222078408  0.622323886041258  1.0000
  H   H13       1.0  0.6788721215272124  0.17626502160169127  0.622323886041258  1.0000
  H   H14       1.0  0.8211278780146922  0.8237349785667483  0.12232388574682428  1.0000
  H   H15       1.0  0.32112787816739063  0.6762650222078408  0.8776761143235455  1.0000
  H   H16       1.0  0.1788721216799109  0.32373497796059864  0.3776761140291117  1.0000
  H   H17       1.0  0.30442259399182137  0.507307518040079  0.35117956793328664  1.0000
  H   H18       1.0  0.19557740642867646  0.49269248212836053  0.8511795677092227  1.0000
  H   H19       1.0  0.6955774062759781  0.007307518477789059  0.14882043236114711  1.0000
  H   H20       1.0  0.8044225938391228  0.9926924816906505  0.6488204321370831  1.0000
  H   H21       1.0  0.6955774062759781  0.49269248212836053  0.6488204321370831  1.0000
  H   H22       1.0  0.8044225938391228  0.507307518040079  0.14882043236114711  1.0000
  H   H23       1.0  0.30442259399182137  0.9926924816906505  0.8511795677092227  1.0000
  H   H24       1.0  0.19557740642867646  0.007307518477789059  0.35117956793328664  1.0000
  H   H25       1.0  0.3424786133085522  0.6282884307854106  0.29112759312494596  1.0000
  H   H26       1.0  0.1575213865387493  0.37171156938302896  0.7911275934193797  1.0000
  H   H27       1.0  0.6575213869592471  0.12828843122312064  0.20887240665099  1.0000
  H   H28       1.0  0.8424786131558538  0.8717115689453189  0.7088724069454237  1.0000
  H   H29       1.0  0.6575213869592471  0.37171156938302896  0.7088724069454237  1.0000
  H   H30       1.0  0.8424786131558538  0.6282884307854106  0.20887240665099  1.0000
  H   H31       1.0  0.3424786133085522  0.8717115689453189  0.7911275934193797  1.0000
  H   H32       1.0  0.1575213865387493  0.12828843122312064  0.29112759312494596  1.0000
  H   H33       1.0  0.21589971393812135  0.755419521264173  0.28831749302052145  1.0000
  H   H34       1.0  0.2841002864823765  0.2445804789042665  0.7883174933149553  1.0000
  H   H35       1.0  0.784100286329678  0.2554195217018831  0.21168250675541458  1.0000
  H   H36       1.0  0.7158997137854229  0.7445804784665565  0.7116825070498484  1.0000
  H   H37       1.0  0.784100286329678  0.2445804789042665  0.7116825070498484  1.0000
  H   H38       1.0  0.7158997137854229  0.755419521264173  0.21168250675541458  1.0000
  H   H39       1.0  0.21589971393812135  0.7445804784665565  0.7883174933149553  1.0000
  H   H40       1.0  0.2841002864823765  0.2554195217018831  0.28831749302052145  1.0000
  H   H41       1.0  0.17937214086291833  0.6380711106001865  0.3511754842451199  1.0000
  H   H42       1.0  0.32062785898438323  0.36192888956825303  0.8511754845395536  1.0000
  H   H43       1.0  0.8206278588316848  0.13807110999403693  0.14882451553081608  1.0000
  H   H44       1.0  0.6793721412834162  0.8619288891305429  0.6488245158252498  1.0000
  H   H45       1.0  0.8206278588316848  0.36192888956825303  0.6488245158252498  1.0000
  H   H46       1.0  0.6793721412834162  0.6380711106001865  0.14882451553081608  1.0000
  H   H47       1.0  0.17937214086291833  0.8619288891305429  0.8511754845395536  1.0000
  H   H48       1.0  0.32062785898438323  0.13807110999403693  0.3511754842451199  1.0000
  H   H49       1.0  0.3081544554822056  0.5012503471560146  0.19000841995513576  1.0000
  H   H50       1.0  0.19184554436509593  0.49874965301242496  0.6900084197310717  1.0000
  H   H51       1.0  0.6918455442123975  0.00125034759372464  0.3099915798208002  1.0000
  H   H52       1.0  0.8081544559027034  0.9987496525747148  0.809991580115234  1.0000
  H   H53       1.0  0.6918455442123975  0.49874965301242496  0.809991580115234  1.0000
  H   H54       1.0  0.8081544559027034  0.5012503471560146  0.3099915798208002  1.0000
  H   H55       1.0  0.3081544554822056  0.9987496525747148  0.6900084197310717  1.0000
  H   H56       1.0  0.19184554436509593  0.00125034759372464  0.19000841995513576  1.0000
  H   H57       1.0  0.23033901275814692  0.475107209396469  0.1323013604896597  1.0000
  H   H58       1.0  0.2696609876623509  0.5248927907719705  0.6323013602655957  1.0000
  H   H59       1.0  0.7696609875096525  0.975107208958759  0.3676986392862763  1.0000
  H   H60       1.0  0.7303390126054484  0.02489279120968054  0.8676986395807101  1.0000
  H   H61       1.0  0.7696609875096525  0.5248927907719705  0.8676986395807101  1.0000
  H   H62       1.0  0.7303390126054484  0.475107209396469  0.3676986392862763  1.0000
  H   H63       1.0  0.23033901275814692  0.02489279120968054  0.6323013602655957  1.0000
  H   H64       1.0  0.2696609876623509  0.975107208958759  0.1323013604896597  1.0000
  H   H65       1.0  0.2778223759306274  0.7634827899402121  0.18847834039592148  1.0000
  H   H66       1.0  0.2221776239166741  0.23651721022822747  0.6884783406903553  1.0000
  H   H67       1.0  0.7221776243371719  0.2634827893340625  0.3115216593800145  1.0000
  H   H68       1.0  0.777822375777929  0.7365172097905174  0.8115216596744483  1.0000
  H   H69       1.0  0.7221776243371719  0.23651721022822747  0.8115216596744483  1.0000
  H   H70       1.0  0.777822375777929  0.7634827899402121  0.3115216593800145  1.0000
  H   H71       1.0  0.2778223759306274  0.7365172097905174  0.6884783406903553  1.0000
  H   H72       1.0  0.2221776239166741  0.2634827893340625  0.18847834039592148  1.0000
  H   H73       1.0  0.20458169244728336  0.730923790249797  0.12724909107218346  1.0000
  H   H74       1.0  0.2954183074000182  0.26907620991864245  0.6272490913666172  1.0000
  H   H75       1.0  0.795418307820516  0.2309237896436475  0.37275090870375255  1.0000
  H   H76       1.0  0.7045816922945849  0.769076210524792  0.8727509089981864  1.0000
  H   H77       1.0  0.795418307820516  0.26907620991864245  0.8727509089981864  1.0000
  H   H78       1.0  0.7045816922945849  0.730923790249797  0.37275090870375255  1.0000
  H   H79       1.0  0.20458169244728336  0.769076210524792  0.6272490913666172  1.0000
  H   H80       1.0  0.2954183074000182  0.2309237896436475  0.12724909107218346  1.0000
  H   H81       1.0  0.4144575198053553  0.5727403517491283  0.1379930278339152  1.0000
  H   H82       1.0  0.08554248061514257  0.42725964841931124  0.6379930276098512  1.0000
  H   H83       1.0  0.5855424804624442  0.0727403511429787  0.36200697246051855  1.0000
  H   H84       1.0  0.9144575196526569  0.9272596479816012  0.8620069722364546  1.0000
  H   H85       1.0  0.5855424804624442  0.42725964841931124  0.8620069722364546  1.0000
  H   H86       1.0  0.9144575196526569  0.5727403517491283  0.36200697246051855  1.0000
  H   H87       1.0  0.4144575198053553  0.9272596479816012  0.6379930276098512  1.0000
  H   H88       1.0  0.08554248061514257  0.0727403511429787  0.1379930278339152  1.0000
  H   H89       1.0  0.45759357490215247  0.6712567287891948  0.07116258539132499  1.0000
  H   H90       1.0  0.04240642551834539  0.3287432703353851  0.5711625851672609  1.0000
  H   H91       1.0  0.542406425365647  0.17125672922690482  0.4288374149031088  1.0000
  H   H92       1.0  0.957593574749454  0.8287432709415348  0.9288374146790447  1.0000
  H   H93       1.0  0.542406425365647  0.3287432703353851  0.9288374146790447  1.0000
  H   H94       1.0  0.957593574749454  0.6712567287891948  0.4288374149031088  1.0000
  H   H95       1.0  0.45759357490215247  0.8287432709415348  0.5711625851672609  1.0000
  H   H96       1.0  0.04240642551834539  0.17125672922690482  0.07116258539132499  1.0000
  H   H97       1.0  0.4471039028666849  0.888562634654049  0.14295824355555087  1.0000
  H   H98       1.0  0.052896096980616654  0.11143736551439053  0.6429582438499846  1.0000
  H   H99       1.0  0.5528960968279182  0.3885626340478994  0.35704175622038514  1.0000
  H   H100      1.0  0.9471039032871827  0.6114373661205401  0.857041756514819  1.0000
  H   H101      1.0  0.5528960968279182  0.11143736551439053  0.857041756514819  1.0000
  H   H102      1.0  0.9471039032871827  0.888562634654049  0.35704175622038514  1.0000
  H   H103      1.0  0.4471039028666849  0.6114373661205401  0.6429582438499846  1.0000
  H   H104      1.0  0.052896096980616654  0.3885626340478994  0.14295824355555087  1.0000
  H   H105      1.0  0.39878664857713136  0.7949340927626555  0.20851794967338705  1.0000
  H   H106      1.0  0.10121335184336648  0.20506590740578406  0.708517949449323  1.0000
  H   H107      1.0  0.601213351690668  0.2949340921565059  0.29148205010254896  1.0000
  H   H108      1.0  0.8987866484244329  0.7050659080119337  0.7914820503969827  1.0000
  H   H109      1.0  0.601213351690668  0.20506590740578406  0.7914820503969827  1.0000
  H   H110      1.0  0.8987866484244329  0.7949340927626555  0.29148205010254896  1.0000
  H   H111      1.0  0.39878664857713136  0.7050659080119337  0.708517949449323  1.0000
  H   H112      1.0  0.10121335184336648  0.2949340921565059  0.20851794967338705  1.0000
  H   H113      1.0  0.5645473528585506  0.7466155036966577  0.16063204877187184  1.0000
  H   H114      1.0  0.9354526472565503  0.25338449542792213  0.6606320485478078  1.0000
  H   H115      1.0  0.4354526474092488  0.2466155041343678  0.3393679515225619  1.0000
  H   H116      1.0  0.06454735243805275  0.7533844960340716  0.839367951298498  1.0000
  H   H117      1.0  0.4354526474092488  0.25338449542792213  0.839367951298498  1.0000
  H   H118      1.0  0.06454735243805275  0.7466155036966577  0.3393679515225619  1.0000
  H   H119      1.0  0.5645473528585506  0.7533844960340716  0.6606320485478078  1.0000
  H   H120      1.0  0.9354526472565503  0.2466155041343678  0.16063204877187184  1.0000
  H   H121      1.0  0.5171814238485625  0.6381314623886798  0.221311781751322  1.0000
  H   H122      1.0  0.9828185762665383  0.3618685377797597  0.7213117820457557  1.0000
  H   H123      1.0  0.48281857641923687  0.13813146282638988  0.278688218024614  1.0000
  H   H124      1.0  0.017181423428064637  0.8618685373420496  0.7786882183190478  1.0000
  H   H125      1.0  0.48281857641923687  0.3618685377797597  0.7786882183190478  1.0000
  H   H126      1.0  0.017181423428064637  0.6381314623886798  0.278688218024614  1.0000
  H   H127      1.0  0.5171814238485625  0.8618685373420496  0.7213117820457557  1.0000
  H   H128      1.0  0.9828185762665383  0.13813146282638988  0.221311781751322  1.0000
  H   H129      1.0  0.49486408774678736  0.9121480772709307  0.37420717648079943  1.0000
  H   H130      1.0  0.005135912100514218  0.08785192289750872  0.8742071762567355  1.0000
  H   H131      1.0  0.5051359119478157  0.41214807770864087  0.12579282381363432  1.0000
  H   H132      1.0  0.9948640881672851  0.5878519224597987  0.6257928235895703  1.0000
  H   H133      1.0  0.5051359119478157  0.08785192289750872  0.6257928235895703  1.0000
  H   H134      1.0  0.9948640881672851  0.9121480772709307  0.12579282381363432  1.0000
  H   H135      1.0  0.49486408774678736  0.5878519224597987  0.8742071762567355  1.0000
  H   H136      1.0  0.005135912100514218  0.41214807770864087  0.37420717648079943  1.0000
  H   H137      1.0  0.42449480412287127  0.8653215112245566  0.3121802977207717  1.0000
  H   H138      1.0  0.07550519572443025  0.13467848894388296  0.8121802980152055  1.0000
  H   H139      1.0  0.5755051955717317  0.365321510618407  0.18781970205516424  1.0000
  H   H140      1.0  0.9244948045433691  0.6346784885061729  0.687819702349598  1.0000
  H   H141      1.0  0.5755051955717317  0.13467848894388296  0.687819702349598  1.0000
  H   H142      1.0  0.9244948045433691  0.8653215112245566  0.18781970205516424  1.0000
  H   H143      1.0  0.42449480412287127  0.6346784885061729  0.8121802980152055  1.0000
  H   H144      1.0  0.07550519572443025  0.365321510618407  0.3121802977207717  1.0000
  H   H145      1.0  0.5357777903357986  0.6619533840982115  0.3855487653611123  1.0000
  H   H146      1.0  0.9642222097793023  0.33804661607022796  0.8855487651370483  1.0000
  H   H147      1.0  0.46422220993200075  0.16195338349206198  0.11445123441482365  1.0000
  H   H148      1.0  0.03577778991530084  0.8380466166763776  0.6144512347092573  1.0000
  H   H149      1.0  0.46422220993200075  0.33804661607022796  0.6144512347092573  1.0000
  H   H150      1.0  0.03577778991530084  0.6619533840982115  0.11445123441482365  1.0000
  H   H151      1.0  0.5357777903357986  0.8380466166763776  0.8855487651370483  1.0000
  H   H152      1.0  0.9642222097793023  0.16195338349206198  0.3855487653611123  1.0000
  H   H153      1.0  0.46477125115425627  0.6092380373843359  0.324810791604997  1.0000
  H   H154      1.0  0.03522874869304526  0.3907619627841037  0.8248107918994306  1.0000
  H   H155      1.0  0.5352287491135431  0.10923803782204589  0.17518920817093905  1.0000
  H   H156      1.0  0.9647712510015578  0.8907619623463936  0.6751892084653728  1.0000
  H   H157      1.0  0.5352287491135431  0.3907619627841037  0.6751892084653728  1.0000
  H   H158      1.0  0.9647712510015578  0.6092380373843359  0.17518920817093905  1.0000
  H   H159      1.0  0.46477125115425627  0.8907619623463936  0.8248107918994306  1.0000
  H   H160      1.0  0.03522874869304526  0.10923803782204589  0.324810791604997  1.0000
  C   C1        1.0  0.3217619949021495  0.713474810094639  0.3937435862982134  1.0000
  C   C2        1.0  0.17823800494515205  0.2865251900738005  0.8937435860741494  1.0000
  C   C3        1.0  0.6782380053656499  0.21347481053234907  0.10625641399622031  1.0000
  C   C4        1.0  0.821761994749451  0.7865251896360904  0.6062564137721563  1.0000
  C   C5        1.0  0.6782380053656499  0.2865251900738005  0.6062564137721563  1.0000
  C   C6        1.0  0.821761994749451  0.713474810094639  0.10625641399622031  1.0000
  C   C7        1.0  0.3217619949021495  0.7865251896360904  0.8937435860741494  1.0000
  C   C8        1.0  0.17823800494515205  0.21347481053234907  0.3937435862982134  1.0000
  C   C9        1.0  0.3012379819120996  0.6165394555464345  0.3338505367493536  1.0000
  C   C10       1.0  0.19876201850839822  0.383460544622005  0.8338505365252896  1.0000
  C   C11       1.0  0.6987620183556998  0.11653945598414459  0.16614946354508014  1.0000
  C   C12       1.0  0.8012379817594011  0.883460544184295  0.6661494633210161  1.0000
  C   C13       1.0  0.6987620183556998  0.383460544622005  0.6661494633210161  1.0000
  C   C14       1.0  0.8012379817594011  0.6165394555464345  0.16614946354508014  1.0000
  C   C15       1.0  0.3012379819120996  0.883460544184295  0.8338505365252896  1.0000
  C   C16       1.0  0.19876201850839822  0.11653945598414459  0.3338505367493536  1.0000
  C   C17       1.0  0.22042157977186552  0.6479628058956477  0.3080741026043334  1.0000
  C   C18       1.0  0.2795784206486323  0.3520371942727918  0.8080741028987671  1.0000
  C   C19       1.0  0.7795784204959338  0.1479628063333578  0.19192589717160263  1.0000
  C   C20       1.0  0.7204215796191671  0.8520371938350817  0.6919258969475386  1.0000
  C   C21       1.0  0.7795784204959338  0.3520371942727918  0.6919258969475386  1.0000
  C   C22       1.0  0.7204215796191671  0.6479628058956477  0.19192589717160263  1.0000
  C   C23       1.0  0.22042157977186552  0.8520371938350817  0.8080741028987671  1.0000
  C   C24       1.0  0.2795784206486323  0.1479628063333578  0.3080741026043334  1.0000
  C   C25       1.0  0.2526985085932224  0.5437633365531597  0.1732591765687966  1.0000
  C   C26       1.0  0.24730149125407913  0.4562366636152799  0.6732591763447326  1.0000
  C   C27       1.0  0.7473014916745769  0.04376333699086969  0.3267408237256372  1.0000
  C   C28       1.0  0.752698508440524  0.95623666317757  0.8267408235015732  1.0000
  C   C29       1.0  0.7473014916745769  0.4562366636152799  0.8267408235015732  1.0000
  C   C30       1.0  0.752698508440524  0.5437633365531597  0.3267408237256372  1.0000
  C   C31       1.0  0.2526985085932224  0.95623666317757  0.6732591763447326  1.0000
  C   C32       1.0  0.24730149125407913  0.04376333699086969  0.1732591765687966  1.0000
  C   C33       1.0  0.25981060889730995  0.6924416731731401  0.14685495314280272  1.0000
  C   C34       1.0  0.24018939094999162  0.30755832699529945  0.6468549529187387  1.0000
  C   C35       1.0  0.7401893913704894  0.1924416725669905  0.35314504715163103  1.0000
  C   C36       1.0  0.7598106087446115  0.8075583276014491  0.8531450469275671  1.0000
  C   C37       1.0  0.7401893913704894  0.30755832699529945  0.8531450469275671  1.0000
  C   C38       1.0  0.7598106087446115  0.6924416731731401  0.35314504715163103  1.0000
  C   C39       1.0  0.25981060889730995  0.8075583276014491  0.6468549529187387  1.0000
  C   C40       1.0  0.24018939094999162  0.1924416725669905  0.14685495314280272  1.0000
  C   C41       1.0  0.41705314919915176  0.6773514984533502  0.11476972527848897  1.0000
  C   C42       1.0  0.08294685064814979  0.32264850171508935  0.614769725054425  1.0000
  C   C43       1.0  0.5829468504954514  0.17735149889106022  0.38523027501594476  1.0000
  C   C44       1.0  0.9170531496196496  0.8226485012773792  0.8852302747918807  1.0000
  C   C45       1.0  0.5829468504954514  0.32264850171508935  0.8852302747918807  1.0000
  C   C46       1.0  0.9170531496196496  0.6773514984533502  0.38523027501594476  1.0000
  C   C47       1.0  0.41705314919915176  0.8226485012773792  0.614769725054425  1.0000
  C   C48       1.0  0.08294685064814979  0.17735149889106022  0.11476972527848897  1.0000
  C   C49       1.0  0.4425205588651801  0.7855948737476935  0.16776170373700278  1.0000
  C   C50       1.0  0.05747944098212146  0.21440512537688633  0.6677617040314365  1.0000
  C   C51       1.0  0.5574794414026193  0.28559487418540364  0.33223829603893323  1.0000
  C   C52       1.0  0.9425205587124815  0.7144051259830358  0.8322382958148692  1.0000
  C   C53       1.0  0.5574794414026193  0.21440512537688633  0.8322382958148692  1.0000
  C   C54       1.0  0.9425205587124815  0.7855948737476935  0.33223829603893323  1.0000
  C   C55       1.0  0.4425205588651801  0.7144051259830358  0.6677617040314365  1.0000
  C   C56       1.0  0.05747944098212146  0.28559487418540364  0.16776170373700278  1.0000
  C   C57       1.0  0.519070491948477  0.7446491967900016  0.20006423815034902  1.0000
  C   C58       1.0  0.9809295081666239  0.2553508033784379  0.700064237926285  1.0000
  C   C59       1.0  0.48092950831932246  0.2446491972277117  0.29993576214408474  1.0000
  C   C60       1.0  0.019070491527979072  0.7553508029407279  0.7999357619200208  1.0000
  C   C61       1.0  0.48092950831932246  0.2553508033784379  0.7999357619200208  1.0000
  C   C62       1.0  0.019070491527979072  0.7446491967900016  0.29993576214408474  1.0000
  C   C63       1.0  0.519070491948477  0.7553508029407279  0.700064237926285  1.0000
  C   C64       1.0  0.9809295081666239  0.2446491972277117  0.20006423815034902  1.0000
  C   C65       1.0  0.48076402368528837  0.8365509171831297  0.3333041106515708  1.0000
  C   C66       1.0  0.01923597673520949  0.16344908298530994  0.8333041109460045  1.0000
  C   C67       1.0  0.5192359765825111  0.33655091657698  0.16669588912436523  1.0000
  C   C68       1.0  0.98076402353259  0.6634490835914595  0.666695889418799  1.0000
  C   C69       1.0  0.5192359765825111  0.16344908298530994  0.666695889418799  1.0000
  C   C70       1.0  0.98076402353259  0.8365509171831297  0.16669588912436523  1.0000
  C   C71       1.0  0.48076402368528837  0.6634490835914595  0.8333041109460045  1.0000
  C   C72       1.0  0.01923597673520949  0.33655091657698  0.3333041106515708  1.0000
  C   C73       1.0  0.47982311510184633  0.6892775394262921  0.36328643043568554  1.0000
  C   C74       1.0  0.02017688474545523  0.3107224607421474  0.8632864302116215  1.0000
  C   C75       1.0  0.5201768845927568  0.1892775398640022  0.1367135698587482  1.0000
  C   C76       1.0  0.9798231149491479  0.8107224603044373  0.6367135696346842  1.0000
  C   C77       1.0  0.5201768845927568  0.3107224607421474  0.6367135696346842  1.0000
  C   C78       1.0  0.9798231149491479  0.6892775394262921  0.1367135698587482  1.0000
  C   C79       1.0  0.47982311510184633  0.8107224603044373  0.8632864302116215  1.0000
  C   C80       1.0  0.02017688474545523  0.1892775398640022  0.36328643043568554  1.0000
  S   S1        1.0  0.413191891512962  0.6809423818511608  0.4356842573522687  1.0000
  S   S2        1.0  0.08680810833433956  0.3190576183172787  0.9356842571282046  1.0000
  S   S3        1.0  0.5868081087548375  0.18094238228887086  0.06431574242366732  1.0000
  S   S4        1.0  0.9131918913602635  0.8190576178795687  0.564315742718101  1.0000
  S   S5        1.0  0.5868081087548375  0.3190576183172787  0.564315742718101  1.0000
  S   S6        1.0  0.9131918913602635  0.6809423818511608  0.06431574242366732  1.0000
  S   S7        1.0  0.413191891512962  0.8190576178795687  0.9356842571282046  1.0000
  S   S8        1.0  0.08680810833433956  0.18094238228887086  0.4356842573522687  1.0000
  S   S9        1.0  0.18401027039233692  0.5274661156249066  0.24380282499099032  1.0000
  S   S10       1.0  0.3159897294549646  0.4725338845435329  0.7438028247669264  1.0000
  S   S11       1.0  0.8159897293022662  0.027466116062616702  0.25619717530344344  1.0000
  S   S12       1.0  0.6840102708128347  0.9725338841058229  0.7561971750793794  1.0000
  S   S13       1.0  0.8159897293022662  0.4725338845435329  0.7561971750793794  1.0000
  S   S14       1.0  0.6840102708128347  0.5274661156249066  0.25619717530344344  1.0000
  S   S15       1.0  0.18401027039233692  0.9725338841058229  0.7438028247669264  1.0000
  S   S16       1.0  0.3159897294549646  0.027466116062616702  0.24380282499099032  1.0000
  S   S17       1.0  0.32529401781223544  0.7126512904413494  0.074395432773132  1.0000
  S   S18       1.0  0.17470598203506613  0.28734870972709003  0.574395432549068  1.0000
  S   S19       1.0  0.6747059818823676  0.21265128983519993  0.4256045675213017  1.0000
  S   S20       1.0  0.8252940182327333  0.7873487092893799  0.9256045672972377  1.0000
  S   S21       1.0  0.6747059818823676  0.28734870972709003  0.9256045672972377  1.0000
  S   S22       1.0  0.8252940182327333  0.7126512904413494  0.4256045675213017  1.0000
  S   S23       1.0  0.32529401781223544  0.7873487092893799  0.574395432549068  1.0000
  S   S24       1.0  0.17470598203506613  0.21265128983519993  0.074395432773132  1.0000
  S   S25       1.0  0.5529737179227092  0.8618222306849072  0.26712605087455604  1.0000
  S   S26       1.0  0.9470262821923917  0.13817776948353241  0.7671260511689898  1.0000
  S   S27       1.0  0.4470262817718939  0.3618222300787575  0.23287394890137997  1.0000
  S   S28       1.0  0.05297371807540765  0.638177770089682  0.7328739491958137  1.0000
  S   S29       1.0  0.4470262817718939  0.13817776948353241  0.7328739491958137  1.0000
  S   S30       1.0  0.05297371807540765  0.8618222306849072  0.23287394890137997  1.0000
  S   S31       1.0  0.5529737179227092  0.638177770089682  0.7671260511689898  1.0000
  S   S32       1.0  0.9470262821923917  0.3618222300787575  0.26712605087455604  1.0000
  I   I1        1.0  0.3945127623602405  0.39685463429039847  0.46980801195143174  1.0000
  I   I2        1.0  0.10548723748706101  0.6031453658780411  0.9698080117273677  1.0000
  I   I3        1.0  0.6054872373343626  0.8968546338526885  0.03019198782450427  1.0000
  I   I4        1.0  0.8945127627807383  0.10314536631575112  0.5301919881189381  1.0000
  I   I5        1.0  0.6054872373343626  0.6031453658780411  0.5301919881189381  1.0000
  I   I6        1.0  0.8945127627807383  0.39685463429039847  0.03019198782450427  1.0000
  I   I7        1.0  0.3945127623602405  0.10314536631575112  0.9698080117273677  1.0000
  I   I8        1.0  0.10548723748706101  0.8968546338526885  0.46980801195143174  1.0000
  I   I9        1.0  0.3680897015022689  0.10808671597232673  0.503881453604309  1.0000
  I   I10       1.0  0.13191029834503262  0.8919132831522533  0.0038814533098753194  1.0000
  I   I11       1.0  0.6319102981923341  0.6080867165784762  0.9961185467604944  1.0000
  I   I12       1.0  0.8680897019227668  0.3919132835899632  0.49611854646606074  1.0000
  I   I13       1.0  0.6319102981923341  0.8919132831522533  0.49611854646606074  1.0000
  I   I14       1.0  0.8680897019227668  0.10808671597232673  0.9961185467604944  1.0000
  I   I15       1.0  0.3680897015022689  0.3919132835899632  0.0038814533098753194  1.0000
  I   I16       1.0  0.13191029834503262  0.6080867165784762  0.503881453604309  1.0000
