data_image0
_chemical_formula_structural       H64B4C152N8O12F60
_chemical_formula_sum              "H64 B4 C152 N8 O12 F60"
_cell_length_a       11.350758282677454
_cell_length_b       20.844181565964156
_cell_length_c       14.312211839134278
_cell_angle_alpha    90.0
_cell_angle_beta     99.73495708856582
_cell_angle_gamma    90.0

_space_group_name_H-M_alt    "P 1"
_space_group_IT_number       1

loop_
  _space_group_symop_operation_xyz
  'x, y, z'

loop_
  _atom_site_type_symbol
  _atom_site_label
  _atom_site_symmetry_multiplicity
  _atom_site_fract_x
  _atom_site_fract_y
  _atom_site_fract_z
  _atom_site_occupancy
  H   H1        1.0  0.4097113595130278  0.1293926759112475  0.6383707542435161  1.0000
  H   H2        1.0  0.09028864077390845  0.6293926757681823  0.861629245572026  1.0000
  H   H3        1.0  0.5902886409591563  0.8706073242823721  0.3616292457817071  1.0000
  H   H4        1.0  0.9097113596982757  0.3706073244254374  0.13837075445319724  1.0000
  H   H5        1.0  0.5833956421374014  0.8338057277518288  0.5278334732348288  1.0000
  H   H6        1.0  0.9166043572491898  0.33380572789489416  0.9721665268021242  1.0000
  H   H7        1.0  0.41660435745365926  0.16619427244179077  0.4721665267898066  1.0000
  H   H8        1.0  0.08339564234187104  0.6661942722987255  0.027833473222511073  1.0000
  H   H9        1.0  0.47673630949168544  0.8710481437010154  0.07866270080270095  1.0000
  H   H10       1.0  0.02326369030384495  0.3710481438440805  0.42133729920961677  1.0000
  H   H11       1.0  0.5232636900993753  0.12895185601285422  0.9213372992219344  1.0000
  H   H12       1.0  0.9767363092872157  0.6289518563495391  0.5786627008150186  1.0000
  H   H13       1.0  0.6419005782699985  0.94257391482721  0.053401719337471114  1.0000
  H   H14       1.0  0.8580994213558957  0.4425739149702753  0.4465982801879336  1.0000
  H   H15       1.0  0.35809942132106226  0.05742608488665946  0.9465982806871643  1.0000
  H   H16       1.0  0.1419005782351651  0.5574260852233444  0.5534017198367017  1.0000
  H   H17       1.0  0.6464856511292536  0.983513580282505  0.8873240562439476  1.0000
  H   H18       1.0  0.853514349138461  0.4835135799458201  0.6126759437935932  1.0000
  H   H19       1.0  0.3535143493429306  0.01648641991111463  0.11267594378127554  1.0000
  H   H20       1.0  0.14648565045259984  0.5164864197680494  0.38732405623104216  1.0000
  H   H21       1.0  0.3332412172667862  0.8706427168929031  0.7908799144416294  1.0000
  H   H22       1.0  0.1667587830201501  0.37064271703596835  0.7091200853739127  1.0000
  H   H23       1.0  0.6667587823242744  0.12935728282096642  0.20912008558300604  1.0000
  H   H24       1.0  0.8332412174520342  0.6293572831576514  0.2908799146513105  1.0000
  H   H25       1.0  0.22508877502920221  0.9016462412075843  0.4366906070037383  1.0000
  H   H26       1.0  0.2749112247663282  0.4016462413506495  0.06330939300857943  1.0000
  H   H27       1.0  0.7749112245618586  0.09835375898603536  0.5633093930208971  1.0000
  H   H28       1.0  0.7250887748247327  0.5983537588429702  0.936690607016056  1.0000
  H   H29       1.0  0.10211567356110801  0.08900408078527433  0.5003066150198308  1.0000
  H   H30       1.0  0.39788432672582824  0.5890040806422091  0.9996933847957112  1.0000
  H   H31       1.0  0.8978843260299526  0.9109959194083453  0.4996933850048047  1.0000
  H   H32       1.0  0.6021156737463559  0.4109959190716604  0.0003066152295118888  1.0000
  H   H33       1.0  0.19399296077247233  0.7990776863696718  0.5063352893111279  1.0000
  H   H34       1.0  0.3060070386333405  0.29907768603298684  0.9936647105038262  1.0000
  H   H35       1.0  0.8060070388185884  0.2009223138239479  0.4936647107135074  1.0000
  H   H36       1.0  0.6939929608073057  0.7009223136808826  0.006335288811897372  1.0000
  H   H37       1.0  0.31139404584227315  0.7708206690271558  0.5974945895848619  1.0000
  H   H38       1.0  0.18860595444466313  0.2708206691702211  0.9025054102306802  1.0000
  H   H39       1.0  0.688605954629911  0.22917933068671364  0.4025054104403613  1.0000
  H   H40       1.0  0.811394046027521  0.7291793305436484  0.09749458979454301  1.0000
  H   H41       1.0  0.34405975272000033  0.8279756346097488  0.5126991144946349  1.0000
  H   H42       1.0  0.15594024771735052  0.32797563475281405  0.9873008860298189  1.0000
  H   H43       1.0  0.6559402477521838  0.17202436510412067  0.4873008855305883  1.0000
  H   H44       1.0  0.8440597518737103  0.6720243654408057  0.012699113994816467  1.0000
  H   H45       1.0  0.1899495146094354  0.9494621675295587  0.7236691354554946  1.0000
  H   H46       1.0  0.3100504856775008  0.449462167672624  0.7763308643600473  1.0000
  H   H47       1.0  0.8100504858627486  0.05053783266406092  0.2763308645697285  1.0000
  H   H48       1.0  0.6899495147946832  0.5505378325209956  0.22366913566517588  1.0000
  H   H49       1.0  0.11876432369390358  0.05770532971963982  0.6704039166601599  1.0000
  H   H50       1.0  0.3812356757119093  0.5577053300563247  0.8295960831547944  1.0000
  H   H51       1.0  0.8812356758971572  0.9422946699942297  0.32959608336447566  1.0000
  H   H52       1.0  0.6187643238791515  0.4422946701372949  0.17040391686984094  1.0000
  H   H53       1.0  0.1012439028239991  0.05853118512420552  0.3378911058736145  1.0000
  H   H54       1.0  0.39875609697153125  0.5585311849811403  0.16210889413870325  1.0000
  H   H55       1.0  0.8987560967670616  0.9414688150694142  0.6621088941510209  1.0000
  H   H56       1.0  0.6012439035006528  0.4414688152124794  0.8378911058865199  1.0000
  H   H57       1.0  0.11367060510459484  0.9758845405192139  0.3089097868744729  1.0000
  H   H58       1.0  0.38632939469093547  0.4758845406622792  0.19109021313784483  1.0000
  H   H59       1.0  0.886329394486466  0.024115459194655547  0.6910902131501625  1.0000
  H   H60       1.0  0.6136706049001251  0.5241154595313404  0.8089097868867906  1.0000
  H   H61       1.0  0.24339478964225522  0.023698013684863593  0.33599177249037815  1.0000
  H   H62       1.0  0.25660521015327514  0.5236980135417983  0.16400822752193953  1.0000
  H   H63       1.0  0.756605210829929  0.976301986508756  0.6640082275348451  1.0000
  H   H64       1.0  0.7433947894377857  0.47630198665182133  0.8359917725026959  1.0000
  B   B1        1.0  0.28341262739735723  0.8259415096494658  0.9528156457761008  1.0000
  B   B2        1.0  0.21658737200845565  0.325941509792531  0.5471843540388535  1.0000
  B   B3        1.0  0.7165873721937036  0.17405849006440374  0.04718435424853459  1.0000
  B   B4        1.0  0.7834126275826051  0.6740584904010887  0.452815645985782  1.0000
  C   C1        1.0  0.46455066653609334  0.01389718080718517  0.7119636723546102  1.0000
  C   C2        1.0  0.035449333020133984  0.5138971806641199  0.7880363281692557  1.0000
  C   C3        1.0  0.5354493330549673  0.9861028193864345  0.2880363276700252  1.0000
  C   C4        1.0  0.9645506665709267  0.48610281952949974  0.21196367185537968  1.0000
  C   C5        1.0  0.46558960275217137  0.0338508258415932  0.613342140701533  1.0000
  C   C6        1.0  0.03441039680405601  0.5338508261782782  0.8866578598223328  1.0000
  C   C7        1.0  0.5344103968388894  0.9661491738722763  0.3866578593231022  1.0000
  C   C8        1.0  0.9655896027870047  0.4661491740153415  0.11334214020230254  1.0000
  C   C9        1.0  0.435487077231257  0.0965103414415086  0.586247404737045  1.0000
  C   C10       1.0  0.06451292305567927  0.5965103412984434  0.9137525950784972  1.0000
  C   C11       1.0  0.5645129223598037  0.9034896587521111  0.4137525952875905  1.0000
  C   C12       1.0  0.9354870774165048  0.40348965889517635  0.08624740494672607  1.0000
  C   C13       1.0  0.5610160920637441  0.8829809590630797  0.506519055175769  1.0000
  C   C14       1.0  0.9389839082039705  0.3829809592061451  0.9934809448617719  1.0000
  C   C15       1.0  0.43898390840844004  0.11701904065078965  0.49348094484945415  1.0000
  C   C16       1.0  0.061016092268213744  0.6170190409874746  0.006519055163451312  1.0000
  C   C17       1.0  0.5284517859721788  0.9252927095728776  0.5726944216227713  1.0000
  C   C18       1.0  0.9715482142955358  0.42529270923619267  0.9273055784147696  1.0000
  C   C19       1.0  0.4715482145000054  0.07470729062074213  0.4273055784024519  1.0000
  C   C20       1.0  0.02845178529552499  0.5747072904776769  0.07269442160986579  1.0000
  C   C21       1.0  0.5243800517718651  0.9023595510563278  0.6696302435078925  1.0000
  C   C22       1.0  0.9756199476147259  0.4023595511993931  0.8303697565290605  1.0000
  C   C23       1.0  0.47561994781919564  0.09764044913729186  0.3303697565167429  1.0000
  C   C24       1.0  0.024380051976334673  0.5976404489942266  0.16963024349557482  1.0000
  C   C25       1.0  0.49846084427488474  0.9896405035006627  0.5471829797233622  1.0000
  C   C26       1.0  0.0015391560120515523  0.4896405036437279  0.9528170200921797  1.0000
  C   C27       1.0  0.5015391561972994  0.010359496692956955  0.45281702030186094  1.0000
  C   C28       1.0  0.9984608444601327  0.5103594965498918  0.04718297993304343  1.0000
  C   C29       1.0  0.48250909233947176  0.8886653194504156  0.00845322889825539  1.0000
  C   C30       1.0  0.017490908337182018  0.3886653195934808  0.49154677111465006  1.0000
  C   C31       1.0  0.5174909081327124  0.11133468074320411  0.9915467711269679  1.0000
  C   C32       1.0  0.9825090921350021  0.6113346806001388  0.5084532289105731  1.0000
  C   C33       1.0  0.5750103190418764  0.9285643304702579  0.993331589757046  1.0000
  C   C34       1.0  0.924989681225838  0.4285643306133232  0.5066684102804947  1.0000
  C   C35       1.0  0.42498968143030774  0.07143566972336171  0.006668410268177089  1.0000
  C   C36       1.0  0.07501031836522265  0.5714356695802965  0.4933315897441406  1.0000
  C   C37       1.0  0.5784426349818952  0.9503622350107707  0.9021443144311233  1.0000
  C   C38       1.0  0.9215573652858193  0.45036223467408565  0.5978556856064176  1.0000
  C   C39       1.0  0.4215573654902889  0.04963776518284907  0.09785568559409992  1.0000
  C   C40       1.0  0.07844263518636488  0.5496377650397838  0.40214431441880555  1.0000
  C   C41       1.0  0.4916782425729466  0.9286892329516415  0.8284387918104854  1.0000
  C   C42       1.0  0.008321757713989696  0.42868923309470686  0.6715612080050568  1.0000
  C   C43       1.0  0.5083217570181141  0.07131076676222789  0.17156120821415005  1.0000
  C   C44       1.0  0.9916782427581945  0.5713107670989128  0.32843879202016646  1.0000
  C   C45       1.0  0.40217427740280925  0.8882010661541478  0.8473193512472229  1.0000
  C   C46       1.0  0.09782572288412701  0.388201065817463  0.6526806485683191  1.0000
  C   C47       1.0  0.5978257230693749  0.11179893403947176  0.15268064877800028  1.0000
  C   C48       1.0  0.9021742767069337  0.6117989338964065  0.34731935145631626  1.0000
  C   C49       1.0  0.29997548299274757  0.8041117261887903  0.06444392554824757  1.0000
  C   C50       1.0  0.20002451680278283  0.30411172633185557  0.43555607446407013  1.0000
  C   C51       1.0  0.7000245165983132  0.19588827352507918  0.9355560744763879  1.0000
  C   C52       1.0  0.7999754836694013  0.6958882738617641  0.5644439255611531  1.0000
  C   C53       1.0  0.31018786696050366  0.7415431227695236  0.09997124362934208  1.0000
  C   C54       1.0  0.18981213283502665  0.2415431229125889  0.4000287563829756  1.0000
  C   C55       1.0  0.689812132630557  0.2584568769443458  0.9000287563952932  1.0000
  C   C56       1.0  0.8101878676371576  0.7584568772810307  0.5999712436422476  1.0000
  C   C57       1.0  0.3161414850504079  0.726393380430125  0.19566685145569826  1.0000
  C   C58       1.0  0.1838585156262459  0.22639338057319025  0.3043331485572073  1.0000
  C   C59       1.0  0.6838585154217762  0.27360661928374447  0.804333148569525  1.0000
  C   C60       1.0  0.8161414848459383  0.7736066196204294  0.6956668514680159  1.0000
  C   C61       1.0  0.3111125119611793  0.775230290950143  0.26114658495231413  1.0000
  C   C62       1.0  0.1888874878343511  0.27523029109320823  0.23885341506000357  1.0000
  C   C63       1.0  0.6888874876298814  0.2247697087637265  0.7388534150723213  1.0000
  C   C64       1.0  0.8111125117567096  0.7247697091004115  0.7611465849646318  1.0000
  C   C65       1.0  0.2999272569841456  0.838379154139347  0.22950594880924638  1.0000
  C   C66       1.0  0.2000727428113848  0.33837915428241233  0.27049405120307135  1.0000
  C   C67       1.0  0.7000727434880386  0.1616208460542726  0.7704940512159769  1.0000
  C   C68       1.0  0.799927256779676  0.6616208459112074  0.729505948821564  1.0000
  C   C69       1.0  0.29407954357461913  0.8510206137795885  0.13353601301035065  1.0000
  C   C70       1.0  0.20592045622091124  0.3510206139226537  0.36646398700196703  1.0000
  C   C71       1.0  0.7059204560164416  0.1489793864140312  0.8664639870142847  1.0000
  C   C72       1.0  0.7940795433701494  0.648979386270966  0.6335360130226684  1.0000
  C   C73       1.0  0.1596936936374613  0.8685975581580738  0.9340962229759334  1.0000
  C   C74       1.0  0.3403063057683515  0.3685975578213888  0.5659037768390207  1.0000
  C   C75       1.0  0.8403063059535993  0.13140244203554594  0.06590377704870187  1.0000
  C   C76       1.0  0.6596936938227091  0.6314024418924806  0.4340962231856147  1.0000
  C   C77       1.0  0.05504019854845083  0.8398715749332052  0.9538303974598392  1.0000
  C   C78       1.0  0.4449598017384854  0.33987157507627047  0.5461696023557029  1.0000
  C   C79       1.0  0.94495980104261  0.16012842478066425  0.04616960256479626  1.0000
  C   C80       1.0  0.5550401987336987  0.660128424637599  0.4538303976695203  1.0000
  C   C81       1.0  0.9456864929382695  0.8711120195598867  0.9471888834498106  1.0000
  C   C82       1.0  0.554313507329445  0.37111201970295205  0.5528111165877304  1.0000
  C   C83       1.0  0.0543135066527912  0.12888798063373288  0.052811116574824936  1.0000
  C   C84       1.0  0.44568649314273917  0.6288879804906676  0.4471888834374928  1.0000
  C   C85       1.0  0.936965167646167  0.9343560402391425  0.9156281856203441  1.0000
  C   C86       1.0  0.5630348326215475  0.43435603990245764  0.5843718144171968  1.0000
  C   C87       1.0  0.06303483194489379  0.06564395995447705  0.08437181440429131  1.0000
  C   C88       1.0  0.43696516785063655  0.5656439598114118  0.4156281856080264  1.0000
  C   C89       1.0  0.03743023415898523  0.9654496769909112  0.8950650360984512  1.0000
  C   C90       1.0  0.4625697652468276  0.46544967713397645  0.604934963716503  1.0000
  C   C91       1.0  0.9625697654320754  0.0345503227229583  0.10493496392618416  1.0000
  C   C92       1.0  0.5374302341938185  0.5345503230596432  0.3950650355992207  1.0000
  C   C93       1.0  0.14605087051437607  0.9327727643549079  0.9068834729812071  1.0000
  C   C94       1.0  0.35394912977256016  0.4327727644979732  0.5931165268343348  1.0000
  C   C95       1.0  0.8539491299578083  0.06722723583871174  0.09311652704401611  1.0000
  C   C96       1.0  0.6460508706996239  0.5672272356956465  0.40688347319088825  1.0000
  C   C97       1.0  0.2863182325255076  0.7681264188440878  0.8754668044157922  1.0000
  C   C98       1.0  0.21368176791184318  0.26812641898715317  0.6245331961086615  1.0000
  C   C99       1.0  0.7136817679466765  0.23187358086978155  0.12453319560943103  1.0000
  C   C100      1.0  0.7863182325603411  0.7318735812064665  0.37546680391656156  1.0000
  C   C101      1.0  0.39274086865097113  0.7336726132232108  0.8769152155564046  1.0000
  C   C102      1.0  0.1072591307548417  0.23367261288652583  0.6230847842585496  1.0000
  C   C103      1.0  0.6072591309400895  0.2663273869704089  0.12308478446823087  1.0000
  C   C104      1.0  0.8927408686858045  0.7663273868273436  0.3769152150571739  1.0000
  C   C105      1.0  0.4100963486409409  0.6877728297765804  0.8100090092082339  1.0000
  C   C106      1.0  0.08990365164599537  0.1877728299196456  0.689990990607308  1.0000
  C   C107      1.0  0.5899036518312433  0.3122271699372891  0.18999099081698925  1.0000
  C   C108      1.0  0.9100963479450652  0.8122271697942238  0.31000900941732734  1.0000
  C   C109      1.0  0.3162944549548936  0.6734868215177463  0.7366053392726931  1.0000
  C   C110      1.0  0.18370554445091922  0.17348682166081159  0.763394660542261  1.0000
  C   C111      1.0  0.6837055446361671  0.32651317819612313  0.2633946607519422  1.0000
  C   C112      1.0  0.8162944551401414  0.8265131785328081  0.23660533948237436  1.0000
  C   C113      1.0  0.20922729440520063  0.7068154364025048  0.7312337989407051  1.0000
  C   C114      1.0  0.2907727050006122  0.20681543654557002  0.7687662008742492  1.0000
  C   C115      1.0  0.7907727051858601  0.2931845633113647  0.2687662010839304  1.0000
  C   C116      1.0  0.7092272945904484  0.7931845636480496  0.23123379915038614  1.0000
  C   C117      1.0  0.19660341004193893  0.7533182624756936  0.7990522422060389  1.0000
  C   C118      1.0  0.30339658951428844  0.25331826261875884  0.7009477583178271  1.0000
  C   C119      1.0  0.8033965895491217  0.2466817372381759  0.20094775781859653  1.0000
  C   C120      1.0  0.6966034100767723  0.7466817375748609  0.2990522417068083  1.0000
  C   C121      1.0  0.16447824522854318  0.9975620411958446  0.4577921118969715  1.0000
  C   C122      1.0  0.3355217554481106  0.4975620413389098  0.04220788811593397  1.0000
  C   C123      1.0  0.835521755243641  0.0024379585180249043  0.5422078881282516  1.0000
  C   C124      1.0  0.6644782450240736  0.5024379588547099  0.9577921119092893  1.0000
  C   C125      1.0  0.2135887262161985  0.9190503565407746  0.5840018692528143  1.0000
  C   C126      1.0  0.28641127407073774  0.4190503566838399  0.9159981305627276  1.0000
  C   C127      1.0  0.7864112742559856  0.08094964317309485  0.4159981307724089  1.0000
  C   C128      1.0  0.7135887264014463  0.5809496435097797  0.0840018694624955  1.0000
  C   C129      1.0  0.20353219615920362  0.9359633607229897  0.4884774538971796  1.0000
  C   C130      1.0  0.2964678036363267  0.43596336086605486  0.011522546115138062  1.0000
  C   C131      1.0  0.7964678043129805  0.06403663947063007  0.5115225461280435  1.0000
  C   C132      1.0  0.703532195954734  0.5640366393275649  0.9884774539094974  1.0000
  C   C133      1.0  0.1349898176799979  0.04164383078572789  0.5238781155931723  1.0000
  C   C134      1.0  0.36501018172581495  0.5416438311224128  0.9761218842217818  1.0000
  C   C135      1.0  0.8650101819110627  0.9583561689281416  0.476121884431463  1.0000
  C   C136      1.0  0.6349898177148312  0.45835616907120685  0.02387811509394174  1.0000
  C   C137      1.0  0.27657477001858827  0.8121351004561246  0.5544186969136571  1.0000
  C   C138      1.0  0.22342522938722453  0.3121351005991898  0.945581302901297  1.0000
  C   C139      1.0  0.7234252295724725  0.1878648992577449  0.4455813031109783  1.0000
  C   C140      1.0  0.7765747702038361  0.6878648991146796  0.054418697123338244  1.0000
  C   C141      1.0  0.18353410970616443  0.9633739375399246  0.6497836866123732  1.0000
  C   C142      1.0  0.3164658907311864  0.4633739376829898  0.8502163139120806  1.0000
  C   C143      1.0  0.8164658907660198  0.03662606217394493  0.3502163134128501  1.0000
  C   C144      1.0  0.6835341097409977  0.5366260620308797  0.14978368611314255  1.0000
  C   C145      1.0  0.1442237590760497  0.02415427962027117  0.6190334541206075  1.0000
  C   C146      1.0  0.3557762403297632  0.5241542794772059  0.8809665456943466  1.0000
  C   C147      1.0  0.8557762405150109  0.9758457205733485  0.3809665459040279  1.0000
  C   C148      1.0  0.6442237592612976  0.4758457202366636  0.1190334543302887  1.0000
  C   C149      1.0  0.1545426808186668  0.014925567070860882  0.3548077616913757  1.0000
  C   C150      1.0  0.345457319857987  0.5149255674075458  0.14519223832152983  1.0000
  C   C151      1.0  0.8454573196535174  0.9850744326430086  0.6451922383338475  1.0000
  C   C152      1.0  0.6545426806141972  0.4850744327860738  0.8548077617036933  1.0000
  N   N1        1.0  0.49296197993439006  0.9489371303643734  0.7331182824268054  1.0000
  N   N2        1.0  0.007038020502960738  0.4489371305074388  0.7668817180976485  1.0000
  N   N3        1.0  0.507038020537794  0.05106286934949597  0.26688171759841783  1.0000
  N   N4        1.0  0.9929619799692234  0.5510628696861809  0.23311828192757475  1.0000
  N   N5        1.0  0.3962137139166053  0.8699097737475149  0.9369856501559737  1.0000
  N   N6        1.0  0.10378628548920754  0.36990977389058016  0.5630143496589806  1.0000
  N   N7        1.0  0.6037862856744555  0.13009022596635458  0.06301434986866176  1.0000
  N   N8        1.0  0.8962137141018532  0.6300902263030395  0.43698565036565473  1.0000
  O   O1        1.0  0.44225332714844  0.05048660158086293  0.774257155728915  1.0000
  O   O2        1.0  0.057746673288910776  0.5504866014377977  0.7257428447955386  1.0000
  O   O3        1.0  0.5577466733237441  0.9495133981330065  0.22574284429630811  1.0000
  O   O4        1.0  0.9422533271832733  0.44951339827607184  0.2742571552296845  1.0000
  O   O5        1.0  0.5476786814557537  0.8471017839737025  0.6965182166251023  1.0000
  O   O6        1.0  0.9523213188119607  0.34710178411676773  0.8034817834124386  1.0000
  O   O7        1.0  0.45232131901643036  0.15289821574016701  0.30348178340012083  1.0000
  O   O8        1.0  0.04767868166022345  0.652898216076852  0.19651821661278468  1.0000
  O   O9        1.0  0.2539129980567892  0.8605133606823067  0.6203685712671788  1.0000
  O   O10       1.0  0.24608700223014715  0.36051336082537183  0.8796314285483633  1.0000
  O   O11       1.0  0.7460870015342715  0.1394866395113131  0.37963142875745665  1.0000
  O   O12       1.0  0.7539129982420371  0.6394866393682478  0.12036857147685989  1.0000
  F   F1        1.0  0.3120786654594906  0.6904432248613598  0.041186628455089185  1.0000
  F   F2        1.0  0.18792133521716317  0.19044322452467483  0.4588133715578163  1.0000
  F   F3        1.0  0.6879213350126936  0.3095567753322599  0.958813371570134  1.0000
  F   F4        1.0  0.8120786652550209  0.8095567751891946  0.5411866284674068  1.0000
  F   F5        1.0  0.3275709791783814  0.6649590076797469  0.22541941800995016  1.0000
  F   F6        1.0  0.17242902149827238  0.16495900782281225  0.2745805820029553  1.0000
  F   F7        1.0  0.6724290212938029  0.33504099203412246  0.7745805820152731  1.0000
  F   F8        1.0  0.8275709789739117  0.8350409923708073  0.7254194180222678  1.0000
  F   F9        1.0  0.3177431204924801  0.7620063838791123  0.3538516466127856  1.0000
  F   F10       1.0  0.18225688018417374  0.26200638402217763  0.14614835340011992  1.0000
  F   F11       1.0  0.6822568799797041  0.23799361631450733  0.6461483534124375  1.0000
  F   F12       1.0  0.8177431202880104  0.737993616171442  0.8538516466251034  1.0000
  F   F13       1.0  0.29530744906101636  0.8866719852497653  0.29188003362193177  1.0000
  F   F14       1.0  0.20469255073451398  0.38667198539283054  0.20811996639038588  1.0000
  F   F15       1.0  0.7046925505300443  0.11332801446410419  0.7081199664027036  1.0000
  F   F16       1.0  0.7953074488565466  0.613328014321039  0.7918800336342495  1.0000
  F   F17       1.0  0.2826839370171627  0.9140992050804305  0.10809285468746226  1.0000
  F   F18       1.0  0.21731606277836762  0.4140992047437457  0.39190714532485543  1.0000
  F   F19       1.0  0.7173160634550214  0.0859007951131891  0.8919071453377609  1.0000
  F   F20       1.0  0.7826839368126931  0.5859007949701238  0.6080928546997799  1.0000
  F   F21       1.0  0.05731970294383796  0.7771716945918229  0.9811574491202154  1.0000
  F   F22       1.0  0.4426802964619749  0.27717169425513793  0.5188425506947388  1.0000
  F   F23       1.0  0.9426802966472227  0.22282830560179676  0.018842550904420014  1.0000
  F   F24       1.0  0.5573197029786713  0.7228283054587316  0.4811574486209848  1.0000
  F   F25       1.0  0.8488888533096256  0.8417972581207639  0.9706384310015248  1.0000
  F   F26       1.0  0.6511111469580888  0.3417972582638293  0.5293615690360162  1.0000
  F   F27       1.0  0.15111114628143504  0.15820274159310546  0.02936156902311065  1.0000
  F   F28       1.0  0.3488888535140953  0.6582027414500402  0.47063843098920705  1.0000
  F   F29       1.0  0.8323438674639202  0.9661024936993504  0.9070462604104672  1.0000
  F   F30       1.0  0.6676561328037943  0.46610249336266535  0.5929537396270738  1.0000
  F   F31       1.0  0.1676561321271405  0.033897506494269376  0.09295373961416822  1.0000
  F   F32       1.0  0.33234386766838986  0.5338975063512041  0.40704626039814945  1.0000
  F   F33       1.0  0.029735716549662495  0.02738352610265214  0.8667996446823419  1.0000
  F   F34       1.0  0.47026428388768826  0.5273835259595869  0.6332003558421119  1.0000
  F   F35       1.0  0.9702642830413981  0.9726164740909675  0.13320035534229346  1.0000
  F   F36       1.0  0.5297357165844958  0.47261647423403275  0.36679964418311134  1.0000
  F   F37       1.0  0.2409688509314671  0.9693537002667819  0.8916776829309266  1.0000
  F   F38       1.0  0.2590311486247603  0.46935369993009696  0.6083223175929394  1.0000
  F   F39       1.0  0.7590311486595935  0.030646299926837747  0.10832231709370872  1.0000
  F   F40       1.0  0.7409688509663005  0.5306462997837724  0.39167768243169604  1.0000
  F   F41       1.0  0.48745275995123344  0.7451090416214957  0.9469861849223223  1.0000
  F   F42       1.0  0.012547240335702847  0.24510904176456094  0.5530138148932198  1.0000
  F   F43       1.0  0.5125472405209508  0.2548909580923738  0.05301381510290087  1.0000
  F   F44       1.0  0.9874527592553579  0.7548909584290586  0.4469861851314157  1.0000
  F   F45       1.0  0.5158602643756525  0.6569169860024019  0.8153829612204693  1.0000
  F   F46       1.0  0.9841397350109385  0.156916985665717  0.6846170388164838  1.0000
  F   F47       1.0  0.4841397352154082  0.34308301419121773  0.1846170388041661  1.0000
  F   F48       1.0  0.015860264580122168  0.8430830140481526  0.31538296120815157  1.0000
  F   F49       1.0  0.3298532532519909  0.629019464664864  0.6711266732408889  1.0000
  F   F50       1.0  0.17014674703494537  0.12901946432817907  0.8288733265746531  1.0000
  F   F51       1.0  0.6701467472201933  0.3709805355287557  0.32887332678433434  1.0000
  F   F52       1.0  0.8298532534372388  0.8709805353856904  0.17112667345057006  1.0000
  F   F53       1.0  0.11903283704777042  0.6959205591303351  0.6583816000296911  1.0000
  F   F54       1.0  0.38096716323916585  0.19592055927340035  0.8416183997858508  1.0000
  F   F55       1.0  0.8809671625432903  0.30407944106328455  0.34161839999494426  1.0000
  F   F56       1.0  0.6190328372330183  0.8040794409202192  0.15838160023937234  1.0000
  F   F57       1.0  0.09009130686748201  0.7847481911551552  0.7840029758563172  1.0000
  F   F58       1.0  0.4099086934194543  0.2847481912982203  0.7159970239592248  1.0000
  F   F59       1.0  0.9099086936047021  0.21525180903846455  0.21599702416890593  1.0000
  F   F60       1.0  0.5900913061716064  0.7152518088953993  0.28400297606541064  1.0000
