data_image0
_chemical_formula_structural       H88C108O2P4
_chemical_formula_sum              "H88 C108 O2 P4"
_cell_length_a       10.97980603398879
_cell_length_b       13.333866461973443
_cell_length_c       15.644209810177482
_cell_angle_alpha    66.93664698438539
_cell_angle_beta     78.68912208482888
_cell_angle_gamma    72.647314402068

_space_group_name_H-M_alt    "P 1"
_space_group_IT_number       1

loop_
  _space_group_symop_operation_xyz
  'x, y, z'

loop_
  _atom_site_type_symbol
  _atom_site_label
  _atom_site_symmetry_multiplicity
  _atom_site_fract_x
  _atom_site_fract_y
  _atom_site_fract_z
  _atom_site_occupancy
  H   H1        1.0  0.3131570638211767  0.10368352770595125  0.6736128866933428  1.0000
  H   H2        1.0  0.6868429361977423  0.8963164718128227  0.32638711344520327  1.0000
  H   H3        1.0  0.9614415711780916  0.360209355387919  0.6121904364920718  1.0000
  H   H4        1.0  0.038558428545374786  0.6397906449132016  0.3878095636541402  1.0000
  H   H5        1.0  0.9169324720237886  0.27795549565399824  0.5086158392167434  1.0000
  H   H6        1.0  0.08306752769967751  0.7220445046471223  0.4913841609294686  1.0000
  H   H7        1.0  0.9881870014692974  0.14347731897254853  0.4251698667925888  1.0000
  H   H8        1.0  0.011812999456750205  0.856522680553112  0.5748301333497946  1.0000
  H   H9        1.0  0.15650910902555806  0.9946022834799058  0.38598230178446646  1.0000
  H   H10       1.0  0.8434908919887465  0.005397716353799456  0.6140176976603771  1.0000
  H   H11       1.0  0.3645190300153577  0.8626189846552133  0.40681874696605724  1.0000
  H   H12       1.0  0.6354809697963656  0.13738101595395202  0.5931812524826149  1.0000
  H   H13       1.0  0.5675046689301138  0.7795940898874074  0.4850252826024656  1.0000
  H   H14       1.0  0.4324953310888052  0.22040590963136644  0.5149747175360806  1.0000
  H   H15       1.0  0.6937311529628429  0.7612126329170544  0.601973322788942  1.0000
  H   H16       1.0  0.3062688467606234  0.2387873673840662  0.39802667735726993  1.0000
  H   H17       1.0  0.7085709813962974  0.7826685632627359  0.7511405010945936  1.0000
  H   H18       1.0  0.2914290186226216  0.21733143625603782  0.2488594990439525  1.0000
  H   H19       1.0  0.6056896840027443  0.8163300584958436  0.8894576787709425  1.0000
  H   H20       1.0  0.39431031572072217  0.18366994180527693  0.11054232137526945  1.0000
  H   H21       1.0  0.4118911018903428  0.8635560459494498  0.990087611357404  1.0000
  H   H22       1.0  0.5881088981285763  0.1364439535693241  0.009912388781142088  1.0000
  H   H23       1.0  0.1810173466352801  0.898162399800425  0.021246862924488102  1.0000
  H   H24       1.0  0.818982653471896  0.10183760002639362  0.9787531365165179  1.0000
  H   H25       1.0  0.9665315566347422  0.9271841235219259  0.9749921478677255  1.0000
  H   H26       1.0  0.03346844308872416  0.07281587677919445  0.025007852278486432  1.0000
  H   H27       1.0  0.1349491601049831  0.9252412591644904  0.7036658625752463  1.0000
  H   H28       1.0  0.8650508405256119  0.07475874114351672  0.2963341375748032  1.0000
  H   H29       1.0  0.06837615365725755  0.2489605020129717  0.890771861698536  1.0000
  H   H30       1.0  0.9316238460662087  0.7510394982881489  0.10922813844767608  1.0000
  H   H31       1.0  0.8748139278782838  0.34844728123347685  0.9635792121521282  1.0000
  H   H32       1.0  0.12518607184518257  0.6515527190676436  0.0364207879940839  1.0000
  H   H33       1.0  0.7565389751562552  0.5415658506660939  0.870366233116205  1.0000
  H   H34       1.0  0.24346102456721097  0.45843414963502677  0.12963376703000698  1.0000
  H   H35       1.0  0.8292388541583069  0.6298300948872583  0.7032264793805424  1.0000
  H   H36       1.0  0.17076114676774082  0.37016990463840227  0.29677352076184116  1.0000
  H   H37       1.0  0.021331285142550525  0.5293129503152625  0.6300721432451204  1.0000
  H   H38       1.0  0.9786687145809159  0.47068704998585803  0.36992785690109165  1.0000
  H   H39       1.0  0.32026728941898663  0.46951367869384264  0.7073023691251539  1.0000
  H   H40       1.0  0.6797327106881894  0.5304863211329758  0.29269763031585216  1.0000
  H   H41       1.0  0.3985458376541045  0.6261104611740129  0.5839945835970966  1.0000
  H   H42       1.0  0.6014541623648144  0.37388953834476085  0.41600541654144957  1.0000
  H   H43       1.0  0.385299586977272  0.6633171453027931  0.4164869303653069  1.0000
  H   H44       1.0  0.6147004130416472  0.33668285421598076  0.5835130697732394  1.0000
  H   H45       1.0  0.29190807543823405  0.5426235187118363  0.374308860205886  1.0000
  H   H46       1.0  0.708091924285232  0.45737648158928434  0.625691139940326  1.0000
  H   H47       1.0  0.21039826575564724  0.3866399267764126  0.4973507066042549  1.0000
  H   H48       1.0  0.7896017339678192  0.6133600735247079  0.5026492935419571  1.0000
  H   H49       1.0  0.9261100384586444  0.14548582405617722  0.8079910804349656  1.0000
  H   H50       1.0  0.07388996126482207  0.8545141762449433  0.19200891971124634  1.0000
  H   H51       1.0  0.7723214719703523  0.3275729500353311  0.7976031158936076  1.0000
  H   H52       1.0  0.22767852775311395  0.6724270502657895  0.20239688425260446  1.0000
  H   H53       1.0  0.5452607563503249  0.36085514513741224  0.7693581284239325  1.0000
  H   H54       1.0  0.45473924366859425  0.6391448543813614  0.23064187171461364  1.0000
  H   H55       1.0  0.4736575626534156  0.21105379019153667  0.750343510272709  1.0000
  H   H56       1.0  0.5263424370700507  0.7889462101095838  0.24965648987350303  1.0000
  H   H57       1.0  0.6262835309270406  0.027048778122611063  0.7642173987987416  1.0000
  H   H58       1.0  0.37371646888468274  0.9729512224865542  0.23578260064993045  1.0000
  H   H59       1.0  0.897642073981453  0.6972596359488371  0.8700092605443904  1.0000
  H   H60       1.0  0.10235792583027034  0.30274036466032817  0.12999073890428153  1.0000
  H   H61       1.0  0.7960392382817735  0.5728059352075097  0.012177591395004895  1.0000
  H   H62       1.0  0.20396076243707845  0.4271940654085423  0.9878224080575044  1.0000
  H   H63       1.0  0.6538878119248537  0.6499722211875484  0.12604356688840596  1.0000
  H   H64       1.0  0.3461121880940653  0.3500277783312254  0.8739564332501402  1.0000
  H   H65       1.0  0.6159663594115155  0.8539833385492651  0.10124414444453997  1.0000
  H   H66       1.0  0.3840336412190794  0.14601666175874217  0.8987558557055094  1.0000
  H   H67       1.0  0.7167306964592937  0.9781244681243939  0.960371588727332  1.0000
  H   H68       1.0  0.28326930326417266  0.02187553217672672  0.03962841141888003  1.0000
  H   H69       1.0  0.8749684263087955  0.34395520172354216  0.13057778020379865  1.0000
  H   H70       1.0  0.12503157371012344  0.6560447977952318  0.8694222199347473  1.0000
  H   H71       1.0  0.9006023559109397  0.4532728292636463  0.15856112403368053  1.0000
  H   H72       1.0  0.09939764381252661  0.5467271710374741  0.8414388761125315  1.0000
  H   H73       1.0  0.9721029513422579  0.2520240354472305  0.27708560757791173  1.0000
  H   H74       1.0  0.027897049288337004  0.7479759648607769  0.7229143925721377  1.0000
  H   H75       1.0  0.8080662880290654  0.25103910736631024  0.3065667835538174  1.0000
  H   H76       1.0  0.1919337119898538  0.7489608921524635  0.6934332165847286  1.0000
  H   H77       1.0  0.8670978482973377  0.3503017405598772  0.32622941544416656  1.0000
  H   H78       1.0  0.1329021514261285  0.6496982597412434  0.6737705847020454  1.0000
  H   H79       1.0  0.6327076668384436  0.3106493748820347  0.23001082823655006  1.0000
  H   H80       1.0  0.3672923331804754  0.6893506246367391  0.769989171901996  1.0000
  H   H81       1.0  0.6794086394780303  0.3516118092186668  0.10819581458181497  1.0000
  H   H82       1.0  0.3205913605408888  0.6483881903001071  0.8918041855567311  1.0000
  H   H83       1.0  0.4479162557550859  0.4101327690105871  0.131148643475168  1.0000
  H   H84       1.0  0.5520837443520902  0.5898672308162313  0.8688513559658381  1.0000
  H   H85       1.0  0.5050550770005259  0.534698159437744  0.08437563958234075  1.0000
  H   H86       1.0  0.49494492301839293  0.46530184008102987  0.9156243605562052  1.0000
  H   H87       1.0  0.45221729528651644  0.480620621635884  0.20545047923465856  1.0000
  H   H88       1.0  0.5477827045252068  0.5193793789732811  0.7945495202140134  1.0000
  C   C1        1.0  0.22520465217486538  0.1398279358008306  0.6386742634376867  1.0000
  C   C2        1.0  0.7747953478440538  0.8601720637179432  0.36132573670085927  1.0000
  C   C3        1.0  0.1441137441225747  0.23824189415463784  0.6471804111825245  1.0000
  C   C4        1.0  0.8558862556008916  0.7617581061464828  0.35281958896368754  1.0000
  C   C5        1.0  0.028678714394438854  0.28554802059950535  0.6029477242776495  1.0000
  C   C6        1.0  0.9713212854172845  0.7144519800096599  0.3970522751710224  1.0000
  C   C7        1.0  0.0036409816265859556  0.23917355549217173  0.5453903232603612  1.0000
  C   C8        1.0  0.996359018392333  0.7608264440266019  0.4546096768781849  1.0000
  C   C9        1.0  0.07335224801769014  0.1030472857682422  0.4631723084028736  1.0000
  C   C10       1.0  0.926647752001229  0.8969527137505316  0.5368276917356725  1.0000
  C   C11       1.0  0.16567046594088033  0.01871946651300695  0.44301415259745136  1.0000
  C   C12       1.0  0.8343295340780388  0.9812805330057668  0.5569858475410948  1.0000
  C   C13       1.0  0.37481678446773314  0.8802965677921449  0.4670481133032808  1.0000
  C   C14       1.0  0.6251832156394428  0.11970343203467358  0.5329518861377253  1.0000
  C   C15       1.0  0.485247427272643  0.8332483941191272  0.5109268372543515  1.0000
  C   C16       1.0  0.5147525724508231  0.16675160618199353  0.4890731628918605  1.0000
  C   C17       1.0  0.6101707325417578  0.8020077138177547  0.6377424931300649  1.0000
  C   C18       1.0  0.38982926808883717  0.1979922864902525  0.3622575070199845  1.0000
  C   C19       1.0  0.6179359901975331  0.8123190079428313  0.7199401527192762  1.0000
  C   C20       1.0  0.38206400952593317  0.18768099235828908  0.2800598474269358  1.0000
  C   C21       1.0  0.5118934988682569  0.8462810498929384  0.8630963613528465  1.0000
  C   C22       1.0  0.4881065017623382  0.15371895041506886  0.13690363879720296  1.0000
  C   C23       1.0  0.4043893052907392  0.8715915098257441  0.9190332726820004  1.0000
  C   C24       1.0  0.5956106944327273  0.12840849047537622  0.0809667274642115  1.0000
  C   C25       1.0  0.16985562755053388  0.9081785758560608  0.9503496916778781  1.0000
  C   C26       1.0  0.8301443725566422  0.09182142397075786  0.049650307763127934  1.0000
  C   C27       1.0  0.050628012588421735  0.9232248917685622  0.9249650899483068  1.0000
  C   C28       1.0  0.9493719880421732  0.07677510853944539  0.07503491020174258  1.0000
  C   C29       1.0  0.03872959138164883  0.9289937275251231  0.834626931524967  1.0000
  C   C30       1.0  0.9612704086372702  0.07100627199365057  0.1653730686135789  1.0000
  C   C31       1.0  0.14654294755723118  0.9237520080219466  0.7716176834950633  1.0000
  C   C32       1.0  0.8534570521662351  0.07624799227917396  0.22838231665114866  1.0000
  C   C33       1.0  0.27016330189893806  0.9117685254251496  0.793995830484316  1.0000
  C   C34       1.0  0.7298366978245283  0.08823147487597072  0.206004169661896  1.0000
  C   C35       1.0  0.28118085362764406  0.899798960187998  0.8874795569265282  1.0000
  C   C36       1.0  0.7188191463912748  0.1002010393307759  0.11252044321201782  1.0000
  C   C37       1.0  0.38512249811198546  0.8986997426196985  0.7306832855817375  1.0000
  C   C38       1.0  0.6148775019951905  0.10130025720712002  0.2693167138592686  1.0000
  C   C39       1.0  0.5048288458672797  0.8548045181260759  0.7702513075742303  1.0000
  C   C40       1.0  0.49517115415163926  0.14519548139269786  0.2297486925643157  1.0000
  C   C41       1.0  0.3854143380087493  0.9135497886161029  0.6337099163615761  1.0000
  C   C42       1.0  0.6145856617147171  0.08645021168501754  0.36629008378463584  1.0000
  C   C43       1.0  0.4937273509217251  0.8494949619386125  0.5940771042533207  1.0000
  C   C44       1.0  0.5062726488017413  0.15050503836250806  0.4059228958928912  1.0000
  C   C45       1.0  0.28494057776912546  0.9854095479657681  0.5736103345776522  1.0000
  C   C46       1.0  0.7150594220425978  0.014590452643397223  0.42638966487101976  1.0000
  C   C47       1.0  0.2746212242794165  0.9603693838402356  0.49529368972353344  1.0000
  C   C48       1.0  0.7253787757395026  0.03963061567853808  0.5047063104150127  1.0000
  C   C49       1.0  0.19988312351950965  0.08743517299177195  0.5834850683341578  1.0000
  C   C50       1.0  0.8001168764994094  0.912564826527002  0.4165149318043882  1.0000
  C   C51       1.0  0.09026859406994173  0.14290818361834468  0.5311637994644235  1.0000
  C   C52       1.0  0.9097314065606534  0.8570918166896625  0.46883620068562587  1.0000
  C   C53       1.0  0.05754655890242152  0.38156700558203827  0.755195993873745  1.0000
  C   C54       1.0  0.9424534409093017  0.6184329950271268  0.24480400557492707  1.0000
  C   C55       1.0  0.014774883302754206  0.33183177559726856  0.8492018299568789  1.0000
  C   C56       1.0  0.985225116716165  0.6681682239215051  0.15079817018166725  1.0000
  C   C57       1.0  0.906318783494051  0.38844655376710374  0.890427751027035  1.0000
  C   C58       1.0  0.0936812166131249  0.611553446059715  0.10957224841397098  1.0000
  C   C59       1.0  0.8398168139945247  0.4961548210393578  0.8381207688946586  1.0000
  C   C60       1.0  0.16018318581719865  0.5038451795698075  0.1618792305540134  1.0000
  C   C61       1.0  0.8808890848112212  0.545973712237706  0.7443178384727798  1.0000
  C   C62       1.0  0.11911091500050221  0.4540262883714593  0.2556821609758921  1.0000
  C   C63       1.0  0.9889749129140789  0.4891934309093649  0.7029832755422527  1.0000
  C   C64       1.0  0.01102508680938737  0.5108065693917557  0.2970167246039594  1.0000
  C   C65       1.0  0.2595133349959067  0.41644512006371276  0.611244715925348  1.0000
  C   C66       1.0  0.7404866650230124  0.5835548794550609  0.388755284213198  1.0000
  C   C67       1.0  0.3143234470388935  0.4842426336770079  0.6343434778709799  1.0000
  C   C68       1.0  0.685676552684573  0.5157573666241126  0.36565652227523215  1.0000
  C   C69       1.0  0.35794584133486546  0.5733020525565639  0.5649089078313609  1.0000
  C   C70       1.0  0.6420541596794392  0.4266979472771415  0.4350910916134826  1.0000
  C   C71       1.0  0.34999089746009043  0.5947204794248868  0.47109924758978783  1.0000
  C   C72       1.0  0.6500091022633758  0.40527952087623365  0.5289007525564242  1.0000
  C   C73       1.0  0.29829713974196564  0.5263638921748313  0.44740126318672746  1.0000
  C   C74       1.0  0.7017028611840821  0.47363610735082917  0.552598736955656  1.0000
  C   C75       1.0  0.25289714154277915  0.43798010310447005  0.5167773336224022  1.0000
  C   C76       1.0  0.7471028593832686  0.5620198964211904  0.4832226665199813  1.0000
  C   C77       1.0  0.7865685152234732  0.07275526386638113  0.7885907383996204  1.0000
  C   C78       1.0  0.2134314844999933  0.9272447364347394  0.2114092617465917  1.0000
  C   C79       1.0  0.8268667763853742  0.15891824088617953  0.7963300995983863  1.0000
  C   C80       1.0  0.17313322333809206  0.841081759414941  0.20366990054782572  1.0000
  C   C81       1.0  0.7400045583556832  0.2620276811584792  0.7898835967016323  1.0000
  C   C82       1.0  0.259995441367783  0.7379723191426413  0.21011640344457969  1.0000
  C   C83       1.0  0.6128826402655463  0.28047296157540663  0.7745285097688112  1.0000
  C   C84       1.0  0.38711735975337275  0.7195270379433674  0.22547149036973477  1.0000
  C   C85       1.0  0.5725318226959497  0.19612423768762716  0.7640742697699153  1.0000
  C   C86       1.0  0.42746817702751666  0.8038757626134934  0.2359257303762967  1.0000
  C   C87       1.0  0.6587867567920203  0.09320675638169873  0.77101433265939  1.0000
  C   C88       1.0  0.34121324293144617  0.9067932439194217  0.22898566748682203  1.0000
  C   C89       1.0  0.8159944511275166  0.8462842516708264  0.9059172026433756  1.0000
  C   C90       1.0  0.18400554859594967  0.1537157486302941  0.09408279750283637  1.0000
  C   C91       1.0  0.8377016134980053  0.7314619053777538  0.9214270817085297  1.0000
  C   C92       1.0  0.16229838742804234  0.2685380941479067  0.0785729184338537  1.0000
  C   C93       1.0  0.7800023333326384  0.6615932305062163  0.0007223548533238127  1.0000
  C   C94       1.0  0.21999766639082788  0.3384067697949044  0.9992776452928882  1.0000
  C   C95       1.0  0.6992746643704624  0.705496217068933  0.06523571443065727  1.0000
  C   C96       1.0  0.30072533535300394  0.29450378323218757  0.9347642857155547  1.0000
  C   C97       1.0  0.6779157762150232  0.8192863157344944  0.050868610625413826  1.0000
  C   C98       1.0  0.32208422359669997  0.1807136848746708  0.9491313888232583  1.0000
  C   C99       1.0  0.735892242973328  0.8891042245427097  0.9718659446721443  1.0000
  C   C100      1.0  0.26410775704559075  0.11089577497606433  0.02813405546640172  1.0000
  C   C101      1.0  0.846279918579537  0.38863792500106314  0.18066181980127977  1.0000
  C   C102      1.0  0.15372008143938207  0.6113620745177107  0.8193381803372661  1.0000
  C   C103      1.0  0.8745890799457682  0.30614818018527334  0.27852732370883465  1.0000
  C   C104      1.0  0.1254109201614078  0.6938518196415454  0.7214726757321713  1.0000
  C   C105      1.0  0.6363219569133918  0.38413573786575633  0.16529789642016884  1.0000
  C   C106      1.0  0.36367804289833155  0.615864262743409  0.8347021030285031  1.0000
  C   C107      1.0  0.5028119453920353  0.4574822926625557  0.14543877321985893  1.0000
  C   C108      1.0  0.49718805471514066  0.5425177071642628  0.854561226221147  1.0000
  O   O1        1.0  0.7142727714046275  0.44856388254096524  0.17285093852150296  1.0000
  O   O2        1.0  0.285727228318839  0.5514361177601552  0.827149061624709  1.0000
  P   P1        1.0  0.20478774340762507  0.30236440488721683  0.7088753098732133  1.0000
  P   P2        1.0  0.795212256315841  0.6976355954139037  0.29112469027299864  1.0000
  P   P3        1.0  0.889092359679689  0.9334351027901304  0.79701088890423  1.0000
  P   P4        1.0  0.11090764013203418  0.06656489781903492  0.20298911054444196  1.0000
