data_image0
_chemical_formula_structural       H64C72N24Br8
_chemical_formula_sum              "H64 C72 N24 Br8"
_cell_length_a       19.28803027412386
_cell_length_b       6.360691912890803
_cell_length_c       15.147215994542288
_cell_angle_alpha    90.0
_cell_angle_beta     107.87717298544973
_cell_angle_gamma    90.0

_space_group_name_H-M_alt    "P 1"
_space_group_IT_number       1

loop_
  _space_group_symop_operation_xyz
  'x, y, z'

loop_
  _atom_site_type_symbol
  _atom_site_label
  _atom_site_symmetry_multiplicity
  _atom_site_fract_x
  _atom_site_fract_y
  _atom_site_fract_z
  _atom_site_occupancy
  H   H1        1.0  0.1150393479375692  0.44721473056021516  0.5519176270310236  1.0000
  H   H2        1.0  0.8849606517148528  0.9472147311190534  0.9480823730976968  1.0000
  H   H3        1.0  0.8849606520147174  0.5527852689853056  0.4480823728689838  1.0000
  H   H4        1.0  0.11503934823743395  0.05278526842646717  0.05191762680231052  1.0000
  H   H5        1.0  0.1864278842268594  0.9871690573905328  0.3953371573904976  1.0000
  H   H6        1.0  0.8135721161940944  0.4871690568316946  0.10466284297447397  1.0000
  H   H7        1.0  0.8135721157254272  0.012830943727143712  0.6046628425095096  1.0000
  H   H8        1.0  0.1864278839269946  0.512830942713826  0.8953371576192106  1.0000
  H   H9        1.0  0.006935283756967781  0.8214449153575438  0.44243708483132554  1.0000
  H   H10       1.0  0.9930647164951836  0.32144491479870557  0.05756291483996878  1.0000
  H   H11       1.0  0.9930647161953188  0.1785550857601327  0.5575629150686818  1.0000
  H   H12       1.0  0.006935283457103021  0.6785550847468149  0.9424370850600386  1.0000
  H   H13       1.0  0.06652066757062255  0.7281020309463786  0.38756084501267074  1.0000
  H   H14       1.0  0.9334793328503314  0.22810203038754032  0.11243915535230078  1.0000
  H   H15       1.0  0.9334793325504666  0.27189796859914195  0.6124391555810138  1.0000
  H   H16       1.0  0.06652066710195531  0.7718979691579804  0.8875608445477066  1.0000
  H   H17       1.0  0.2006773465769421  0.6764528763419556  0.5416233657246688  1.0000
  H   H18       1.0  0.7993226530754798  0.17645287578311736  0.9583766344040515  1.0000
  H   H19       1.0  0.799322653544147  0.323547123203565  0.45837663486901575  1.0000
  H   H20       1.0  0.20067734687680686  0.8235471237624032  0.04162336549595579  1.0000
  H   H21       1.0  0.3118948476251246  0.8845127915404799  0.5574656086781506  1.0000
  H   H22       1.0  0.6881051525452433  0.3845127925537977  0.9425343914484632  1.0000
  H   H23       1.0  0.688105152327162  0.11548720800504064  0.4425343912218567  1.0000
  H   H24       1.0  0.3118948474070434  0.615487208563879  0.05746560845154423  1.0000
  H   H25       1.0  0.40441599708585535  0.36771788070096917  0.44748644405077476  1.0000
  H   H26       1.0  0.5955840028171525  0.8677178796876516  0.052513556316303486  1.0000
  H   H27       1.0  0.5955840028664313  0.6322821188445514  0.5525135558492327  1.0000
  H   H28       1.0  0.4044159973039366  0.1322821198578691  0.9474864442773812  1.0000
  H   H29       1.0  0.29347129861557997  0.15906824192341126  0.43116691207358004  1.0000
  H   H30       1.0  0.7065287011186253  0.6590682409100936  0.06883308759982093  1.0000
  H   H31       1.0  0.7065287013367066  0.8409317591942653  0.5688330878264274  1.0000
  H   H32       1.0  0.29347129883366124  0.340931758635427  0.9311669123001864  1.0000
  H   H33       1.0  0.027065880295141852  0.762853365082218  0.6155750821432239  1.0000
  H   H34       1.0  0.9729341198752259  0.26285336452337976  0.8844249179833898  1.0000
  H   H35       1.0  0.9729341196571449  0.23714663603545855  0.38442491775678345  1.0000
  H   H36       1.0  0.027065880077060626  0.7371466350221408  0.11557508191661751  1.0000
  H   H37       1.0  0.22177544400152482  0.857159586514562  0.8373780980828788  1.0000
  H   H38       1.0  0.778224556168843  0.3571595859557238  0.662621902043735  1.0000
  H   H39       1.0  0.7782245559507618  0.14284041460311453  0.16262190181712857  1.0000
  H   H40       1.0  0.22177544378344355  0.6428404135897967  0.3373780978562724  1.0000
  H   H41       1.0  0.02920238382166661  0.08803600106226576  0.7166997258304633  1.0000
  H   H42       1.0  0.9707976156619528  0.588036001621104  0.7833002736045798  1.0000
  H   H43       1.0  0.97079761613062  0.9119639984832548  0.283300274069544  1.0000
  H   H44       1.0  0.02920238429033386  0.4119639979244165  0.2166997262954275  1.0000
  H   H45       1.0  0.10504138917673571  0.14093722385503468  0.808072255146229  1.0000
  H   H46       1.0  0.8949586104756863  0.640937222841717  0.6919277449824914  1.0000
  H   H47       1.0  0.8949586107755508  0.8590627772626419  0.1919277447537783  1.0000
  H   H48       1.0  0.10504138947660048  0.35906277670380365  0.30807225491751594  1.0000
  H   H49       1.0  0.1788881541277483  0.20646988220549362  0.6778616278373626  1.0000
  H   H50       1.0  0.8211118460426196  0.7064698827643319  0.8221383722892511  1.0000
  H   H51       1.0  0.8211118458245383  0.7935301173400269  0.32213837206264473  1.0000
  H   H52       1.0  0.17888815390966703  0.2935301167811887  0.17786162761075625  1.0000
  H   H53       1.0  0.28175219025285075  0.9671745675234392  0.6876269227410217  1.0000
  H   H54       1.0  0.7182478097487146  0.46717456696460086  0.8123730766919148  1.0000
  H   H55       1.0  0.7182478096994358  0.03282543202208141  0.3123730771589857  1.0000
  H   H56       1.0  0.28175219020357206  0.5328254325809197  0.18762692320809254  1.0000
  H   H57       1.0  0.4329211569789359  0.4652551106904718  0.8095597518467886  1.0000
  H   H58       1.0  0.567078843191432  0.9652551096771542  0.6904402482798252  1.0000
  H   H59       1.0  0.5670788429733506  0.5347448904272047  0.19044024805321874  1.0000
  H   H60       1.0  0.43292115676085463  0.034744889868366435  0.30955975162018223  1.0000
  H   H61       1.0  0.3298361418995821  0.7040379995334131  0.7984752409504159  1.0000
  H   H62       1.0  0.6701638577528397  0.2040379989745748  0.7015247591783046  1.0000
  H   H63       1.0  0.6701638580527045  0.2959620015842635  0.20152475894959151  1.0000
  H   H64       1.0  0.32983614219944685  0.7959620005709458  0.2984752407217028  1.0000
  C   C1        1.0  0.08636953200874975  0.02849813235453775  0.43853930905319616  1.0000
  C   C2        1.0  0.9136304677254555  0.5284981329133761  0.06146069062020478  1.0000
  C   C3        1.0  0.9136304679435369  0.9715018671909827  0.5614606908468112  1.0000
  C   C4        1.0  0.08636953222683104  0.47150186820430057  0.9385393092798027  1.0000
  C   C5        1.0  0.15503425941617432  0.07967398153225097  0.429328187865883  1.0000
  C   C6        1.0  0.8449657408359771  0.5796739820910893  0.07067181180541135  1.0000
  C   C7        1.0  0.8449657405361124  0.9203260180132696  0.5706718120341245  1.0000
  C   C8        1.0  0.15503425911630958  0.42032601902658734  0.929328188094596  1.0000
  C   C9        1.0  0.1729258191437468  0.27572068636837116  0.4722503124052123  1.0000
  C   C10       1.0  0.827074181277207  0.7757206869272094  0.027749687959759267  1.0000
  C   C11       1.0  0.8270741814952883  0.7242793131771494  0.5277496881863657  1.0000
  C   C12       1.0  0.17292581867507958  0.22427931419046715  0.9722503119402481  1.0000
  C   C13       1.0  0.23853780371614333  0.4011601339830221  0.4851359403855211  1.0000
  C   C14       1.0  0.761462196018062  0.9011601329697044  0.014864059287879906  1.0000
  C   C15       1.0  0.7614621962361433  0.5988398671346545  0.5148640595144863  1.0000
  C   C16       1.0  0.23853780393422455  0.09883986657581618  0.9851359406121274  1.0000
  C   C17       1.0  0.2449606416081317  0.6064989049668861  0.5210609168700547  1.0000
  C   C18       1.0  0.7550393585622361  0.10649890598020374  0.978939083256559  1.0000
  C   C19       1.0  0.7550393585129574  0.3935010945786345  0.47893908372362987  1.0000
  C   C20       1.0  0.24496064139005044  0.8935010951374729  0.021060916643448363  1.0000
  C   C21       1.0  0.3073954849542729  0.725321272148086  0.5300615282898476  1.0000
  C   C22       1.0  0.692604515216095  0.22532127158924767  0.9699384718367661  1.0000
  C   C23       1.0  0.6926045151668162  0.27467872896959067  0.46993847230383695  1.0000
  C   C24       1.0  0.3073954847361916  0.7746787279562729  0.03006152806324126  1.0000
  C   C25       1.0  0.3640711288456144  0.6382617701970902  0.5029316625165834  1.0000
  C   C26       1.0  0.6359288713247535  0.1382617712104079  0.9970683376100303  1.0000
  C   C27       1.0  0.6359288711066723  0.36173822934843036  0.497068337383424  1.0000
  C   C28       1.0  0.3640711286275331  0.8617382299072687  0.0029316622899769793  1.0000
  C   C29       1.0  0.35974249970728456  0.4341298081744406  0.46806942293667225  1.0000
  C   C30       1.0  0.6402575005448669  0.9341298087332789  0.03193057673462204  1.0000
  C   C31       1.0  0.6402575007629481  0.56587019137108  0.5319305769612285  1.0000
  C   C32       1.0  0.35974249940741976  0.06587019238439773  0.9680694231653852  1.0000
  C   C33       1.0  0.29706531919585516  0.31741514722765674  0.4594331140356253  1.0000
  C   C34       1.0  0.7029346812250987  0.817415147786495  0.040566886329346276  1.0000
  C   C35       1.0  0.7029346809252339  0.6825848523178638  0.5405668865580594  1.0000
  C   C36       1.0  0.2970653187271879  0.18258485333118155  0.9594331135706611  1.0000
  C   C37       1.0  0.18525680292602886  0.618657417131776  0.7228443676086181  1.0000
  C   C38       1.0  0.8147431972443391  0.11865741657293769  0.7771556325179957  1.0000
  C   C39       1.0  0.8147431970262576  0.3813425824137446  0.2771556322913892  1.0000
  C   C40       1.0  0.18525680287675014  0.8813425829725829  0.222844368075689  1.0000
  C   C41       1.0  0.1806041667469825  0.7950508088202097  0.7773768153918036  1.0000
  C   C42       1.0  0.8193958334233854  0.2950508098335274  0.7226231847348102  1.0000
  C   C43       1.0  0.8193958333741066  0.2049491907253109  0.22262318520188107  1.0000
  C   C44       1.0  0.18060416652890124  0.7049491912841492  0.27737681516519713  1.0000
  C   C45       1.0  0.10982630111794753  0.8717908831210508  0.7389957460211904  1.0000
  C   C46       1.0  0.8901736985344743  0.37179088256221254  0.76100425410753  1.0000
  C   C47       1.0  0.8901736988343391  0.12820911799662574  0.2610042538788169  1.0000
  C   C48       1.0  0.10982630141781226  0.6282091169833081  0.23899574579247734  1.0000
  C   C49       1.0  0.24657965050086464  0.4748920528407074  0.7340728791971086  1.0000
  C   C50       1.0  0.7534203495007007  0.9748920533995457  0.7659271202358278  1.0000
  C   C51       1.0  0.753420349451422  0.5251079467048132  0.2659271207028987  1.0000
  C   C52       1.0  0.2465796509695319  0.025107946145974842  0.23407287966207288  1.0000
  C   C53       1.0  0.2344119779616665  0.2650232133682875  0.7045998955619258  1.0000
  C   C54       1.0  0.7655880222087013  0.7650232123549697  0.7954001045646879  1.0000
  C   C55       1.0  0.76558802199062  0.7349767877493891  0.29540010433808156  1.0000
  C   C56       1.0  0.23441197791238771  0.23497678719055085  0.20459989602899667  1.0000
  C   C57       1.0  0.29221790524856683  0.12978702652252988  0.7100563328087097  1.0000
  C   C58       1.0  0.7077820947529986  0.6297870255092122  0.789943666624227  1.0000
  C   C59       1.0  0.7077820947037198  0.8702129745951468  0.28994366709129776  1.0000
  C   C60       1.0  0.29221790519928803  0.37021297403630843  0.21005633327578047  1.0000
  C   C61       1.0  0.3633534482679185  0.2038764332181958  0.746692997648165  1.0000
  C   C62       1.0  0.6366465519024495  0.703876433777034  0.7533070024784487  1.0000
  C   C63       1.0  0.6366465516843682  0.7961235663273247  0.2533070022518425  1.0000
  C   C64       1.0  0.36335344804983716  0.2961235657684865  0.24669299742155856  1.0000
  C   C65       1.0  0.37728261415634573  0.4094308819960462  0.7795515908245473  1.0000
  C   C66       1.0  0.6227173853272736  0.9094308825548846  0.720448408610496  1.0000
  C   C67       1.0  0.6227173857959408  0.5905691175494744  0.22044840907546007  1.0000
  C   C68       1.0  0.37728261462501295  0.09056911699063609  0.27955159128951146  1.0000
  C   C69       1.0  0.3187671720137175  0.5431812635034181  0.7734260952161235  1.0000
  C   C70       1.0  0.6812328281566503  0.04318126294457979  0.7265739049104903  1.0000
  C   C71       1.0  0.6812328279385691  0.4568187376142585  0.2265739046838839  1.0000
  C   C72       1.0  0.3187671717956363  0.9568187366009407  0.2734260949895171  1.0000
  N   N1        1.0  0.11561223231750385  0.33544680503638624  0.5009268575426457  1.0000
  N   N2        1.0  0.884387767852864  0.8354468055952246  0.9990731425839681  1.0000
  N   N3        1.0  0.8843877676347828  0.6645531945091344  0.49907314235736167  1.0000
  N   N4        1.0  0.11561223209942263  0.16455319395029605  0.0009268573160392693  1.0000
  N   N5        1.0  0.06235629312300032  0.18529505848434472  0.48226289787532145  1.0000
  N   N6        1.0  0.9376437067800075  0.685295057471027  0.01773710249175671  1.0000
  N   N7        1.0  0.9376437068292862  0.8147049426333319  0.5177371020246858  1.0000
  N   N8        1.0  0.06235629334108158  0.3147049420744935  0.9822628981019279  1.0000
  N   N9        1.0  0.04213300191968111  0.8565253787813083  0.4051343366664025  1.0000
  N   N10       1.0  0.9578669978145241  0.356525379794626  0.09486566300699847  1.0000
  N   N11       1.0  0.9578669980326056  0.14347462076421227  0.5948656632336049  1.0000
  N   N12       1.0  0.04213300213776234  0.6434746213230507  0.9051343368930088  1.0000
  N   N13       1.0  0.07720049847612412  0.7456469445388499  0.6651895864774926  1.0000
  N   N14       1.0  0.9227995016942437  0.2456469439800116  0.8348104136491211  1.0000
  N   N15       1.0  0.9227995014761623  0.25435305657882673  0.33481041342251466  1.0000
  N   N16       1.0  0.07720049825804291  0.754353055565509  0.1651895862508863  1.0000
  N   N17       1.0  0.12222243528888059  0.5898668590434545  0.6539223524092386  1.0000
  N   N18       1.0  0.8777775641947386  0.08986685848461612  0.8460776470258046  1.0000
  N   N19       1.0  0.877777564663406  0.4101331420742222  0.34607764749076875  1.0000
  N   N20       1.0  0.12222243575754786  0.9101331410609045  0.15392235287420286  1.0000
  N   N21       1.0  0.07263340297772077  0.027413756614530355  0.7687442421302152  1.0000
  N   N22       1.0  0.9273665970238446  0.5274137571733687  0.7312557573027213  1.0000
  N   N23       1.0  0.9273665969745658  0.9725862429309903  0.23125575776979218  1.0000
  N   N24       1.0  0.072633402928442  0.4725862423721519  0.268744242597286  1.0000
  Br  Br1       1.0  0.4483919415817928  0.8010479000993349  0.511320402733424  1.0000
  Br  Br2       1.0  0.5516080580706291  0.30104789954049666  0.9886795973952963  1.0000
  Br  Br3       1.0  0.5516080583704938  0.19895209944618567  0.48867959716658327  1.0000
  Br  Br4       1.0  0.44839194188165754  0.6989521000050241  0.011320402504711015  1.0000
  Br  Br5       1.0  0.4419656354837842  0.015603753704664594  0.7553012438076624  1.0000
  Br  Br6       1.0  0.5580343646865836  0.5156037526913468  0.7446987563189513  1.0000
  Br  Br7       1.0  0.5580343644685024  0.984396247413012  0.24469875609234493  1.0000
  Br  Br8       1.0  0.44196563526570304  0.4843962468541737  0.25530124358105605  1.0000
