data_image0
_chemical_formula_structural       H22C26N4O6Cl6
_chemical_formula_sum              "H22 C26 N4 O6 Cl6"
_cell_length_a       7.049715245613678
_cell_length_b       9.581878032936409
_cell_length_c       10.741516782693049
_cell_angle_alpha    99.25852709256908
_cell_angle_beta     102.74314258720932
_cell_angle_gamma    90.72061803420797

_space_group_name_H-M_alt    "P 1"
_space_group_IT_number       1

loop_
  _space_group_symop_operation_xyz
  'x, y, z'

loop_
  _atom_site_type_symbol
  _atom_site_label
  _atom_site_symmetry_multiplicity
  _atom_site_fract_x
  _atom_site_fract_y
  _atom_site_fract_z
  _atom_site_occupancy
  H   H1        1.0  0.5801799241663096  0.5560442551046834  0.1420862647480302  1.0000
  H   H2        1.0  0.41982007536752225  0.4439557450568961  0.8579137351185773  1.0000
  H   H3        1.0  0.3723780326906043  0.169004930039042  0.1258896621369992  1.0000
  H   H4        1.0  0.6276219668432275  0.8309950701225375  0.8741103377296083  1.0000
  H   H5        1.0  0.8830213991352711  0.7004180385243385  0.6455978467494231  1.0000
  H   H6        1.0  0.1169786003985608  0.299581961637241  0.35440215311718426  1.0000
  H   H7        1.0  0.2798593932017456  0.1636594950625305  0.8736056300644677  1.0000
  H   H8        1.0  0.7201406063320864  0.8363405050990488  0.1263943698021399  1.0000
  H   H9        1.0  0.3591748842009125  0.01466407410483315  0.2605002688048744  1.0000
  H   H10       1.0  0.6408251167212543  0.9853359250043005  0.739499731059232  1.0000
  H   H11       1.0  0.40767007112049153  0.833542299125319  0.21449887648922777  1.0000
  H   H12       1.0  0.5923299298307837  0.16645770102749366  0.7855011233748387  1.0000
  H   H13       1.0  0.17347561644179654  0.8781210701217469  0.23388891375071696  1.0000
  H   H14       1.0  0.8265243844803701  0.12187892898738685  0.7661110861133894  1.0000
  H   H15       1.0  0.1108017634713193  0.9574885638225881  0.7040503548568376  1.0000
  H   H16       1.0  0.8891982360334041  0.04251143529531237  0.29594964500980964  1.0000
  H   H17       1.0  0.9978947944873163  0.6958262144127381  0.07127134438063236  1.0000
  H   H18       1.0  0.0021052050465154553  0.3041737857488413  0.928728655485975  1.0000
  H   H19       1.0  0.22157574453603698  0.6276105904157896  0.04606252490522899  1.0000
  H   H20       1.0  0.7784242549686863  0.37238940870211085  0.9539374749614182  1.0000
  H   H21       1.0  0.012658670270722235  0.6070303592926113  0.9145100434227451  1.0000
  H   H22       1.0  0.9873413292631095  0.3929696408689681  0.08548995644386222  1.0000
  C   C1        1.0  0.6330763747312411  0.4437626523915598  0.3273240472457527  1.0000
  C   C2        1.0  0.3669236248025907  0.5562373477700197  0.6726759526208548  1.0000
  C   C3        1.0  0.6760027931459958  0.5887092119145247  0.3237171408300525  1.0000
  C   C4        1.0  0.32399720638783613  0.41129078824705473  0.676282859036555  1.0000
  C   C5        1.0  0.7802797002971724  0.4865653187584688  0.5588243367987605  1.0000
  C   C6        1.0  0.21972029923665934  0.5134346814031105  0.4411756630678468  1.0000
  C   C7        1.0  0.6911454476883495  0.39293125250552174  0.4463627474915023  1.0000
  C   C8        1.0  0.30885455184548233  0.6070687476560577  0.5536372523751053  1.0000
  C   C9        1.0  0.7619756088974127  0.679774317859786  0.43993774120067436  1.0000
  C   C10       1.0  0.23802439063641934  0.3202256823017935  0.5600622586659332  1.0000
  C   C11       1.0  0.5209783640779827  0.35770432311821687  0.2049155448770161  1.0000
  C   C12       1.0  0.4790216354558492  0.6422956770433627  0.7950844549895915  1.0000
  C   C13       1.0  0.8140845215614637  0.6297817359060106  0.55614163916663  1.0000
  C   C14       1.0  0.185915479360703  0.37021826320312307  0.4438583606974763  1.0000
  C   C15       1.0  0.24206695254207744  0.9277119386627334  0.06034694199640969  1.0000
  C   C16       1.0  0.7579330469917545  0.07228806149884594  0.9396530578701977  1.0000
  C   C17       1.0  0.24068893142844497  0.06280495187573898  0.8985928095339613  1.0000
  C   C18       1.0  0.7593110694937217  0.9371950472333946  0.10140719033014506  1.0000
  C   C19       1.0  0.14537487457598122  0.8145475557847707  0.9646473266185319  1.0000
  C   C20       1.0  0.8546251263752939  0.18545244436804198  0.0353526732455346  1.0000
  C   C21       1.0  0.2988096848519697  0.914186148492056  0.2001071215710897  1.0000
  C   C22       1.0  0.7011903150140307  0.08581385184720977  0.7998928792637214  1.0000
  C   C23       1.0  0.14818747351593703  0.9499820871514417  0.8065674368596367  1.0000
  C   C24       1.0  0.8518125260178948  0.05001791301013769  0.19343256300697062  1.0000
  C   C25       1.0  0.09096604462920176  0.6782384423620438  0.0009449788389459131  1.0000
  C   C26       1.0  0.9090339563220735  0.32176155779076887  0.9990550210251206  1.0000
  N   N1        1.0  0.2850479308858373  0.0501267860099214  0.024399907122991255  1.0000
  N   N2        1.0  0.7149520686479947  0.949873214151658  0.9756000927436163  1.0000
  N   N3        1.0  0.09914326773887423  0.8273808351959528  0.8392260107330536  1.0000
  N   N4        1.0  0.9008567317949577  0.1726191649656267  0.160773989133554  1.0000
  O   O1        1.0  0.6346169774275133  0.6413592492765142  0.2129901839923417  1.0000
  O   O2        1.0  0.3653830224384871  0.3586407510627516  0.7870098168424694  1.0000
  O   O3        1.0  0.5037371897607623  0.40098957883728564  0.09851649798398418  1.0000
  O   O4        1.0  0.4962628097730696  0.5990104213242938  0.9014835018826233  1.0000
  O   O5        1.0  0.43769845510938926  0.239572850793231  0.21592518005379183  1.0000
  O   O6        1.0  0.5623015444244425  0.7604271493683484  0.7840748198128156  1.0000
  Cl  Cl1       1.0  0.8482044328305648  0.42818397020894966  0.7051127405289057  1.0000
  Cl  Cl2       1.0  0.1517955666741585  0.5718160289089508  0.29488725933774157  1.0000
  Cl  Cl3       1.0  0.6635777092427514  0.21778578467617526  0.4605545266679352  1.0000
  Cl  Cl4       1.0  0.33642229029108045  0.7822142154854042  0.5394454731986723  1.0000
  Cl  Cl5       1.0  0.8014646832210193  0.8574145390243302  0.43785289437477826  1.0000
  Cl  Cl6       1.0  0.1985353177302559  0.1425854611284825  0.5621471054892883  1.0000
