data_image0
_chemical_formula_structural       H12C6S6I4
_chemical_formula_sum              "H12 C6 S6 I4"
_cell_length_a       4.355117105020924
_cell_length_b       16.271150267211265
_cell_length_c       6.561638848680544
_cell_angle_alpha    90.0
_cell_angle_beta     103.84258875048985
_cell_angle_gamma    90.0

_space_group_name_H-M_alt    "P 1"
_space_group_IT_number       1

loop_
  _space_group_symop_operation_xyz
  'x, y, z'

loop_
  _atom_site_type_symbol
  _atom_site_label
  _atom_site_symmetry_multiplicity
  _atom_site_fract_x
  _atom_site_fract_y
  _atom_site_fract_z
  _atom_site_occupancy
  H   H1        1.0  0.9028551436901057  0.25000000019649404  0.5885994449536315  1.0000
  H   H2        1.0  0.09714485606549231  0.7499999999748974  0.4114005544618408  1.0000
  H   H3        1.0  0.6506753220675898  0.25000000019649404  0.769035350234764  1.0000
  H   H4        1.0  0.349324677688008  0.7499999999748974  0.23096464918070825  1.0000
  H   H5        1.0  0.8105082476140901  0.32631488326301383  0.2542640009090146  1.0000
  H   H6        1.0  0.1894917527020017  0.8263148836560019  0.7457360000760493  1.0000
  H   H7        1.0  0.1894917527020017  0.6736851162937929  0.7457360000760493  1.0000
  H   H8        1.0  0.8105082476140901  0.17368511651538954  0.2542640009090146  1.0000
  H   H9        1.0  0.4781058197932868  0.39081829468531415  0.14703811262608402  1.0000
  H   H10       1.0  0.5218941799623111  0.8908182944637175  0.8529618867893883  1.0000
  H   H11       1.0  0.5218941799623111  0.6091817054860773  0.8529618867893883  1.0000
  H   H12       1.0  0.4781058197932868  0.10918170509308922  0.14703811262608402  1.0000
  C   C1        1.0  0.6562831217948539  0.25000000019649404  0.6025646830217507  1.0000
  C   C2        1.0  0.3437168785212379  0.7499999999748974  0.3974353179633131  1.0000
  C   C3        1.0  0.5538347567272232  0.33364652595826905  0.23277828689573762  1.0000
  C   C4        1.0  0.44616524358886867  0.8336465263512571  0.7672217140893263  1.0000
  C   C5        1.0  0.44616524358886867  0.6663534742131224  0.7672217140893263  1.0000
  C   C6        1.0  0.5538347567272232  0.16635347382013427  0.23277828689573762  1.0000
  S   S1        1.0  0.3476188782128758  0.25000000019649404  0.07777471782708847  1.0000
  S   S2        1.0  0.6523811221032161  0.7499999999748974  0.9222252831579755  1.0000
  S   S3        1.0  0.4627103824993333  0.3432220634858138  0.48736265966280273  1.0000
  S   S4        1.0  0.5372896172562646  0.8432220632642171  0.5126373397526696  1.0000
  S   S5        1.0  0.5372896172562646  0.6567779366855777  0.5126373397526696  1.0000
  S   S6        1.0  0.4627103824993333  0.1567779362925896  0.48736265966280273  1.0000
  I   I1        1.0  0.8545953423243027  0.4538814760307512  0.8194919629835635  1.0000
  I   I2        1.0  0.14540465743129524  0.9538814764237392  0.1805080364319088  1.0000
  I   I3        1.0  0.14540465743129524  0.5461185235260555  0.1805080364319088  1.0000
  I   I4        1.0  0.8545953423243027  0.04611852374765219  0.8194919629835635  1.0000
