data_image0
_chemical_formula_structural       H10C18N2O4F2
_chemical_formula_sum              "H10 C18 N2 O4 F2"
_cell_length_a       3.991083204217846
_cell_length_b       8.877169355959117
_cell_length_c       11.448649896586378
_cell_angle_alpha    72.23338415180795
_cell_angle_beta     79.3971294182246
_cell_angle_gamma    80.64614753623337

_space_group_name_H-M_alt    "P 1"
_space_group_IT_number       1

loop_
  _space_group_symop_operation_xyz
  'x, y, z'

loop_
  _atom_site_type_symbol
  _atom_site_label
  _atom_site_symmetry_multiplicity
  _atom_site_fract_x
  _atom_site_fract_y
  _atom_site_fract_z
  _atom_site_occupancy
  H   H1        1.0  0.6474633263518685  0.3106988665941976  0.24566865994065545  1.0000
  H   H2        1.0  0.3525366713612683  0.6893011334807767  0.7543313400688669  1.0000
  H   H3        1.0  0.9615856569684069  0.8423824392158131  0.8853044033801636  1.0000
  H   H4        1.0  0.038414343290990666  0.15761756087020024  0.11469559645886668  1.0000
  H   H5        1.0  0.6770771537081619  0.9138524687847884  0.07754615779780587  1.0000
  H   H6        1.0  0.32292284655123565  0.08614753130122482  0.9224538420412243  1.0000
  H   H7        1.0  0.8106430782830825  0.7475445608283596  0.28302694782944265  1.0000
  H   H8        1.0  0.18935692199236387  0.2524554392472256  0.7169730528844451  1.0000
  H   H9        1.0  0.23479089967191175  0.5059515767308614  0.30428255841099583  1.0000
  H   H10       1.0  0.7652091005874856  0.4940484233551518  0.6957174414280342  1.0000
  C   C1        1.0  0.6420764477365357  0.10950149258441985  0.5396031160813183  1.0000
  C   C2        1.0  0.35792355252286184  0.8904985075015934  0.460396883757712  1.0000
  C   C3        1.0  0.6106878896424087  0.14834861529108667  0.4167078511337423  1.0000
  C   C4        1.0  0.3893121080707281  0.8516513847838876  0.58329214887578  1.0000
  C   C5        1.0  0.4642812473135057  0.033706432741372194  0.3704177461859505  1.0000
  C   C6        1.0  0.5357187529458918  0.966293567344641  0.6295822536530795  1.0000
  C   C7        1.0  0.3439727007953639  0.5363977541274504  0.10641890104398839  1.0000
  C   C8        1.0  0.6560272994640336  0.46360224595856286  0.8935810987950418  1.0000
  C   C9        1.0  0.2666214922757009  0.6337079044477281  0.9856916185223742  1.0000
  C   C10       1.0  0.7333785079836965  0.36629209563828524  0.014308381316655964  1.0000
  C   C11       1.0  0.02135167339557332  0.7708926928452381  0.9764424096016149  1.0000
  C   C12       1.0  0.9786483268798729  0.22910730723034714  0.023557591112272767  1.0000
  C   C13       1.0  0.8649156169393547  0.8092143561319692  0.08259814433164762  1.0000
  C   C14       1.0  0.13508438332004263  0.19078564395404396  0.9174018555073826  1.0000
  C   C15       1.0  0.9415994249882902  0.7136830463427724  0.20130516766104728  1.0000
  C   C16       1.0  0.058400575271107306  0.28631695374324106  0.798694832177983  1.0000
  C   C17       1.0  0.17490101680705983  0.580005734313779  0.21390820745500108  1.0000
  C   C18       1.0  0.8250989834523377  0.4199942657722343  0.7860917923840292  1.0000
  N   N1        1.0  0.5751230953451653  0.40603016914404877  0.11684586581826972  1.0000
  N   N2        1.0  0.4248769049302809  0.5939698309315365  0.8831541348956181  1.0000
  O   O1        1.0  0.7112396467190134  0.2801772538615087  0.3380325375184408  1.0000
  O   O2        1.0  0.28876035355643276  0.7198227462140765  0.6619674631954469  1.0000
  O   O3        1.0  0.44387413372516643  0.06611779363737984  0.25833243309328136  1.0000
  O   O4        1.0  0.556125866534231  0.9338822064486335  0.7416675667457489  1.0000
  F   F1        1.0  0.7797076394166056  0.20956880180495294  0.5825386496041712  1.0000
  F   F2        1.0  0.22029236085884063  0.7904311982706322  0.4174613511097166  1.0000
