data_image0
_chemical_formula_structural       H22C40N4O2F14
_chemical_formula_sum              "H22 C40 N4 O2 F14"
_cell_length_a       7.676563651989906
_cell_length_b       10.372379529008171
_cell_length_c       11.7004769180664
_cell_angle_alpha    71.83000310453032
_cell_angle_beta     87.67111211484767
_cell_angle_gamma    83.35652378106134

_space_group_name_H-M_alt    "P 1"
_space_group_IT_number       1

loop_
  _space_group_symop_operation_xyz
  'x, y, z'

loop_
  _atom_site_type_symbol
  _atom_site_label
  _atom_site_symmetry_multiplicity
  _atom_site_fract_x
  _atom_site_fract_y
  _atom_site_fract_z
  _atom_site_occupancy
  H   H1        1.0  0.3836650507761476  0.9747186003172934  0.3840526283215911  1.0000
  H   H2        1.0  0.6163349490481165  0.025281399356757456  0.6159473715142555  1.0000
  H   H3        1.0  0.30839887851180825  0.5203772165579146  0.9539774176159196  1.0000
  H   H4        1.0  0.6916011211564776  0.4796227841367987  0.04602258193916979  1.0000
  H   H5        1.0  0.2705295261434843  0.7296180798992582  0.7735740680861187  1.0000
  H   H6        1.0  0.7294704736807799  0.2703819197747926  0.22642593174972794  1.0000
  H   H7        1.0  0.49182282039790204  0.7569015122306519  0.4724336097256411  1.0000
  H   H8        1.0  0.5081771792703841  0.2430984884640613  0.5275663898294484  1.0000
  H   H9        1.0  0.6545855883410497  0.3179853186739992  0.749359038320934  1.0000
  H   H10       1.0  0.34541441132723627  0.6820146820207141  0.2506409612341554  1.0000
  H   H11       1.0  0.6162194037426629  0.5256733898904529  0.5694666748192729  1.0000
  H   H12       1.0  0.38378059608753684  0.4743266097869496  0.4305333258701401  1.0000
  H   H13       1.0  0.006554666235241782  0.3598225713291926  0.8834673146012448  1.0000
  H   H14       1.0  0.9934453334330441  0.6401774293655207  0.11653268495384465  1.0000
  H   H15       1.0  0.21260032195492082  0.26893170737898675  0.747412813918558  1.0000
  H   H16       1.0  0.7873996778693434  0.731068292295064  0.25258718591728874  1.0000
  H   H17       1.0  0.4570783290608173  0.910334154040742  0.8508779004057895  1.0000
  H   H18       1.0  0.5429216706074688  0.08966584665397129  0.14912209914929997  1.0000
  H   H19       1.0  0.3261145172625649  0.8941161279895231  0.036975653386847246  1.0000
  H   H20       1.0  0.6738854825616992  0.10588387168452772  0.9630243464489995  1.0000
  H   H21       1.0  0.12554652935418595  0.988439067290846  0.1743378522141239  1.0000
  H   H22       1.0  0.8744534704700783  0.011560932383204926  0.8256621476217227  1.0000
  C   C1        1.0  0.44026139838108613  0.6416459528329259  0.6598724346886481  1.0000
  C   C2        1.0  0.5597386027512792  0.35835404685516287  0.34012756595886784  1.0000
  C   C3        1.0  0.4844105435336172  0.4113894281371356  0.8592289833246323  1.0000
  C   C4        1.0  0.5155894575928128  0.5886105715476014  0.14077101646931742  1.0000
  C   C5        1.0  0.3746398936704352  0.5240012418772241  0.8691297037850494  1.0000
  C   C6        1.0  0.6253601061538291  0.4759987577968267  0.1308702960507974  1.0000
  C   C7        1.0  0.3539275041179158  0.6392569441970787  0.7689616120975021  1.0000
  C   C8        1.0  0.6460724957063483  0.3607430554769721  0.23103838773834465  1.0000
  C   C9        1.0  0.42037226803552585  0.761768260308379  0.5544711629456882  1.0000
  C   C10       1.0  0.5796277329349258  0.23823174039702047  0.44552883656750425  1.0000
  C   C11       1.0  0.20265590711881248  0.09622488965885807  0.4540879148025979  1.0000
  C   C12       1.0  0.7973440940076175  0.903775110025879  0.5459120849913517  1.0000
  C   C13       1.0  0.19694873778930921  0.20422048353029343  0.34486894789287154  1.0000
  C   C14       1.0  0.8030512631870779  0.7957795171784579  0.6551310524738871  1.0000
  C   C15       1.0  0.09682628708462872  0.3285990935180199  0.32856278640433134  1.0000
  C   C16       1.0  0.9031737127396354  0.6714009061560309  0.6714372134315153  1.0000
  C   C17       1.0  0.9957978000083729  0.35182910300578124  0.4232401412535416  1.0000
  C   C18       1.0  0.0042022011180568525  0.6481708966789558  0.576759858540408  1.0000
  C   C19       1.0  0.5712310734039892  0.4086444826933215  0.7534672528763425  1.0000
  C   C20       1.0  0.4287689264202751  0.5913555169807292  0.2465327469595043  1.0000
  C   C21       1.0  0.5483239491608989  0.5249981710577328  0.6534060272145447  1.0000
  C   C22       1.0  0.45167605066336547  0.47500182861631807  0.3465939726213021  1.0000
  C   C23       1.0  0.0970001662174241  0.12193513653268978  0.5477730724529022  1.0000
  C   C24       1.0  0.9029998336127755  0.8780648631447128  0.45222692823651084  1.0000
  C   C25       1.0  0.996640173146281  0.24712367539461855  0.5320051322501292  1.0000
  C   C26       1.0  0.0033598279801488632  0.7528763242901185  0.4679948675438203  1.0000
  C   C27       1.0  0.06035727959405842  0.17785885342326987  0.03366908933765196  1.0000
  C   C28       1.0  0.9396427213823286  0.8221411472854814  0.9663309110291068  1.0000
  C   C29       1.0  0.07879071121646754  0.25878182894446927  0.9148293132968381  1.0000
  C   C30       1.0  0.9212092884518183  0.7412181717502441  0.08517068625825128  1.0000
  C   C31       1.0  0.19222333926802607  0.20742286482176012  0.8402290915185795  1.0000
  C   C32       1.0  0.8077766605562381  0.7925771348522908  0.15977090831726723  1.0000
  C   C33       1.0  0.28205990403733433  0.07577014064693263  0.8847738059340108  1.0000
  C   C34       1.0  0.7179400957928652  0.9242298590304697  0.1152261947554023  1.0000
  C   C35       1.0  0.40666343222138673  0.019410360997762423  0.8108594779753493  1.0000
  C   C36       1.0  0.5933365674468991  0.9805896396969508  0.18914052157974018  1.0000
  C   C37       1.0  0.2569110291365243  0.9964030192489365  0.004596757593614798  1.0000
  C   C38       1.0  0.7430889705376971  0.003596981449128412  0.9954032428150411  1.0000
  C   C39       1.0  0.14684210597508374  0.04749658250467896  0.08113454333774035  1.0000
  C   C40       1.0  0.8531578951513461  0.952503417180058  0.9188654564562093  1.0000
  N   N1        1.0  0.3200262616832827  0.8697140107624192  0.5591603067427516  1.0000
  N   N2        1.0  0.6799737381409816  0.13028598891163165  0.440839693093095  1.0000
  N   N3        1.0  0.30607482744964604  0.9777804120355178  0.4582295640136647  1.0000
  N   N4        1.0  0.6939251723805535  0.022219587641884798  0.5417704366757482  1.0000
  O   O1        1.0  0.4585303462503862  0.08597887209630924  0.7106578161588217  1.0000
  O   O2        1.0  0.5414696535738781  0.9140211275777417  0.289342183677025  1.0000
  F   F1        1.0  0.5076657746516448  0.29832050367356494  0.9590149869654364  1.0000
  F   F2        1.0  0.49233422517261954  0.7016794960004858  0.04098501287041026  1.0000
  F   F3        1.0  0.897283093926316  0.4725114655202425  0.40926957187799556  1.0000
  F   F4        1.0  0.10271690590388365  0.5274885341571599  0.5907304288114175  1.0000
  F   F5        1.0  0.08403492772908569  0.02583434112524299  0.6562923113277651  1.0000
  F   F6        1.0  0.9159650720951784  0.9741656585488078  0.34370768850808153  1.0000
  F   F7        1.0  0.8940412198664915  0.26552943478197627  0.6239293432654838  1.0000
  F   F8        1.0  0.10595877980179431  0.734470565912737  0.3760706562896057  1.0000
  F   F9        1.0  0.09827442370581216  0.42671601499256834  0.22084917831052786  1.0000
  F   F10       1.0  0.9017255761243874  0.5732839846848342  0.7791508223788851  1.0000
  F   F11       1.0  0.29466515644032515  0.18539426078625712  0.25088934085588493  1.0000
  F   F12       1.0  0.7053348432279608  0.8146057399084562  0.7491106586992046  1.0000
  F   F13       1.0  0.9503333207176206  0.22941510728573986  0.10653248432525254  1.0000
  F   F14       1.0  0.04966667895660074  0.7705848934123252  0.8934675160834034  1.0000
