data_image0
_chemical_formula_structural       H32C24N16O8Cl4
_chemical_formula_sum              "H32 C24 N16 O8 Cl4"
_cell_length_a       13.167270534716842
_cell_length_b       4.913712776621837
_cell_length_c       13.206194256199252
_cell_angle_alpha    90.0
_cell_angle_beta     99.47104911207094
_cell_angle_gamma    90.0

_space_group_name_H-M_alt    "P 1"
_space_group_IT_number       1

loop_
  _space_group_symop_operation_xyz
  'x, y, z'

loop_
  _atom_site_type_symbol
  _atom_site_label
  _atom_site_symmetry_multiplicity
  _atom_site_fract_x
  _atom_site_fract_y
  _atom_site_fract_z
  _atom_site_occupancy
  H   H1        1.0  0.7815830362661679  0.3639582941251015  0.8205890853096619  1.0000
  H   H2        1.0  0.21841696431429383  0.863958292433729  0.6794109151374381  1.0000
  H   H3        1.0  0.21841696395052546  0.6360417065623954  0.1794109145910265  1.0000
  H   H4        1.0  0.7815830360247713  0.13604170621864695  0.3205890855309228  1.0000
  H   H5        1.0  0.9154832864558765  0.9041323398341378  0.6875990689568701  1.0000
  H   H6        1.0  0.08451671412458532  0.40413233949038935  0.8124009314902301  1.0000
  H   H7        1.0  0.08451671376081696  0.09586766085335915  0.31240093094381843  1.0000
  H   H8        1.0  0.915483286092108  0.5958676611971077  0.1875990684104584  1.0000
  H   H9        1.0  0.9285651557169788  0.697347514145048  0.8006004660483408  1.0000
  H   H10       1.0  0.0714348441033154  0.19734751380129956  0.6993995343943908  1.0000
  H   H11       1.0  0.07143484373954705  0.3026524865424489  0.19939953384797923  1.0000
  H   H12       1.0  0.9285651562357495  0.8026524868861974  0.30060046627397  1.0000
  H   H13       1.0  0.5285553739050914  0.6968472223877243  0.44403616882208885  1.0000
  H   H14       1.0  0.47144462683037275  0.19684722407909686  0.055963831304228974  1.0000
  H   H15       1.0  0.4714446263116019  0.30315277626465165  0.5559638310785997  1.0000
  H   H16       1.0  0.5285553733863207  0.8031527766084001  0.9440361685964596  1.0000
  H   H17       1.0  0.6341736228356649  0.9242155588756553  0.4444896570164599  1.0000
  H   H18       1.0  0.36582637713963184  0.42421555853190696  0.055510343105489315  1.0000
  H   H19       1.0  0.365826376620861  0.07578443977672056  0.55551034287986  1.0000
  H   H20       1.0  0.6341736230770616  0.575784440120469  0.9444896567951991  1.0000
  H   H21       1.0  0.7770954379634464  0.9100842383942539  0.5643488243246567  1.0000
  H   H22       1.0  0.22290456249464374  0.41008424008562655  0.935651175354771  1.0000
  H   H23       1.0  0.222904562253247  0.08991576025812198  0.43565117557603183  1.0000
  H   H24       1.0  0.7770954377220497  0.5899157606018705  0.06434882454591741  1.0000
  H   H25       1.0  0.8908694037587931  0.623327157943021  0.4748829899236895  1.0000
  H   H26       1.0  0.10913059621650369  0.12332715759927244  0.025117010198259754  1.0000
  H   H27       1.0  0.1091305964579004  0.37667284070935503  0.525117009976999  1.0000
  H   H28       1.0  0.8908694040001898  0.8766728410531035  0.9748829897024288  1.0000
  H   H29       1.0  0.9425074798606305  0.3889680546843028  0.39715724626342774  1.0000
  H   H30       1.0  0.05749252011466622  0.8889680550280512  0.10284275385852154  1.0000
  H   H31       1.0  0.057492519595895415  0.6110319460031942  0.6028427536328922  1.0000
  H   H32       1.0  0.9425074801020272  0.11103194565944573  0.897157246042167  1.0000
  C   C1        1.0  0.7469549829056517  0.4410367065634418  0.7455373725904922  1.0000
  C   C2        1.0  0.2530450169146426  0.9410367069071903  0.7544626278522393  1.0000
  C   C3        1.0  0.2530450165508742  0.5589632920889342  0.2544626273058276  1.0000
  C   C4        1.0  0.7469549834244226  0.058963293780306715  0.24553737281612162  1.0000
  C   C5        1.0  0.6496906486270655  0.6475594086692956  0.5614697865440086  1.0000
  C   C6        1.0  0.3503093519533964  0.1475594083255472  0.9385302139030915  1.0000
  C   C7        1.0  0.350309351589628  0.35244059201820127  0.43853021335667985  1.0000
  C   C8        1.0  0.6496906483856687  0.8524405903268288  0.06146978676526938  1.0000
  C   C9        1.0  0.6538899005503573  0.34946240614017754  0.6939196143072682  1.0000
  C   C10       1.0  0.3461100992699369  0.849462406483926  0.8060803861354635  1.0000
  C   C11       1.0  0.3461100996663361  0.6505375925121984  0.3060803855934203  1.0000
  C   C12       1.0  0.6538899009467565  0.15053759216844995  0.193919613765225  1.0000
  C   C13       1.0  0.7945648787255244  0.6500935026560754  0.696284912424572  1.0000
  C   C14       1.0  0.20543512109476994  0.1500935023123269  0.8037150880181595  1.0000
  C   C15       1.0  0.20543512149116913  0.34990649803142154  0.30371508747611636  1.0000
  C   C16       1.0  0.7945648783617559  0.8499064983751701  0.19628491187816047  1.0000
  C   C17       1.0  0.9052947839831286  0.21938431467317385  0.5334345530410632  1.0000
  C   C18       1.0  0.09470521583716582  0.7193843150169223  0.9665654474016684  1.0000
  C   C19       1.0  0.09470521547339747  0.7806156860143231  0.4665654468552567  1.0000
  C   C20       1.0  0.9052947845018993  0.28061568567057465  0.03343455326669251  1.0000
  C   C21       1.0  0.945893878417787  0.4541645109208523  0.4772899709620176  1.0000
  C   C22       1.0  0.054106121557509705  0.9541645112646009  0.022710029159931706  1.0000
  C   C23       1.0  0.05410612179890642  0.5458354897666446  0.5227100289386709  1.0000
  C   C24       1.0  0.9458938786591836  0.04583548942289617  0.9772899707407569  1.0000
  N   N1        1.0  0.7435594249963116  0.7456472216756058  0.6042257368648664  1.0000
  N   N2        1.0  0.25644057546177873  0.2456472233669784  0.8957742628145614  1.0000
  N   N3        1.0  0.256440575220382  0.2543527769767701  0.3957742630358222  1.0000
  N   N4        1.0  0.7435594247549148  0.7543527773205186  0.10422573708612708  1.0000
  N   N5        1.0  0.603693193223646  0.4423466427140902  0.6039686059566904  1.0000
  N   N6        1.0  0.39630680659664824  0.9423466430578387  0.8960313944860412  1.0000
  N   N7        1.0  0.3963068069930474  0.5576533559382858  0.396031393943998  1.0000
  N   N8        1.0  0.6036931929822493  0.05765335559453729  0.10396860617795127  1.0000
  N   N9        1.0  0.8842575531761433  0.761556841051801  0.7329241059149243  1.0000
  N   N10       1.0  0.11574244740431852  0.2615568407080524  0.767075894532176  1.0000
  N   N11       1.0  0.11574244704055017  0.23844315963569604  0.26707589398576426  1.0000
  N   N12       1.0  0.8842575529347465  0.7384431579443235  0.232924106136185  1.0000
  N   N13       1.0  0.602024081043329  0.7622234510367362  0.4748500595684302  1.0000
  N   N14       1.0  0.3979759189319676  0.2622234506929877  0.02514994055351907  1.0000
  N   N15       1.0  0.397975919295736  0.23777654761563982  0.5251499410999306  1.0000
  N   N16       1.0  0.6020240812847257  0.7377765479593883  0.9748500593471694  1.0000
  O   O1        1.0  0.813440399812254  0.13859570775892988  0.5002887151909917  1.0000
  O   O2        1.0  0.18655960000804034  0.6385957081026784  0.9997112852517399  1.0000
  O   O3        1.0  0.18655960040443947  0.8614042929285671  0.4997112847096968  1.0000
  O   O4        1.0  0.8134403995708572  0.3614042925848186  0.00028871541225249624  1.0000
  O   O5        1.0  0.9631525967146326  0.11350545816465893  0.610007658235193  1.0000
  O   O6        1.0  0.03684740298329  0.6135054585084073  0.8899923414398663  1.0000
  O   O7        1.0  0.036847402741893256  0.886494542522838  0.38999234166112695  1.0000
  O   O8        1.0  0.9631525972334035  0.3864945421790896  0.11000765846082226  1.0000
  Cl  Cl1       1.0  0.5915025063813768  0.09104435084778452  0.7485972806503877  1.0000
  Cl  Cl2       1.0  0.40849749331654583  0.591044351191533  0.7514027190246716  1.0000
  Cl  Cl3       1.0  0.40849749383531664  0.9089556478045915  0.25140271925030094  1.0000
  Cl  Cl4       1.0  0.5915025061399801  0.40895564746084295  0.24859728087164834  1.0000
