data_image0
_chemical_formula_structural       H68C48N4O28
_chemical_formula_sum              "H68 C48 N4 O28"
_cell_length_a       6.955360302118413
_cell_length_b       14.643655913048976
_cell_length_c       12.679960529556674
_cell_angle_alpha    90.0
_cell_angle_beta     97.17651586883893
_cell_angle_gamma    90.0

_space_group_name_H-M_alt    "P 1"
_space_group_IT_number       1

loop_
  _space_group_symop_operation_xyz
  'x, y, z'

loop_
  _atom_site_type_symbol
  _atom_site_label
  _atom_site_symmetry_multiplicity
  _atom_site_fract_x
  _atom_site_fract_y
  _atom_site_fract_z
  _atom_site_occupancy
  H   H1        1.0  0.2772318658967941  0.6338936591461657  0.28222630467541315  1.0000
  H   H2        1.0  0.7227681349690217  0.1338936589088265  0.21777369542401148  1.0000
  H   H3        1.0  0.7227681339602534  0.36610634064562303  0.7177736951597614  1.0000
  H   H4        1.0  0.2772318648880257  0.8661063408829621  0.7822263044111631  1.0000
  H   H5        1.0  0.42743348642095297  0.6861602990170175  0.13632742356838068  1.0000
  H   H6        1.0  0.5725665144448628  0.18616029946256787  0.3636725765310439  1.0000
  H   H7        1.0  0.5725665134363672  0.3138397007747713  0.8636725770554585  1.0000
  H   H8        1.0  0.4274334868612767  0.8138397010121103  0.6363274234032831  1.0000
  H   H9        1.0  0.846408170889449  0.4606707860424881  0.13867015835981708  1.0000
  H   H10       1.0  0.15359182997636697  0.9606707862798273  0.3613298417396075  1.0000
  H   H11       1.0  0.15359182896759854  0.5393292137493005  0.8613298414753575  1.0000
  H   H12       1.0  0.8464081698806806  0.03932921419485104  0.638670158095567  1.0000
  H   H13       1.0  0.7912954891177271  0.3231569109584946  0.3455875616482275  1.0000
  H   H14       1.0  0.20870451029899656  0.8231569111958337  0.15441243835204474  1.0000
  H   H15       1.0  0.20870451073932034  0.6768430888332941  0.6544124381869472  1.0000
  H   H16       1.0  0.791295489558051  0.17684308927884457  0.8455875614831299  1.0000
  H   H17       1.0  0.5033227267963518  0.3776624760126938  0.4145490760730116  1.0000
  H   H18       1.0  0.49667727262037187  0.8776624755671434  0.08545092392726066  1.0000
  H   H19       1.0  0.4966772730609684  0.6223375244619844  0.5854509245508277  1.0000
  H   H20       1.0  0.5033227272366756  0.12233752422464535  0.9145490759079139  1.0000
  H   H21       1.0  0.9857676662654872  0.56558066504552  0.46021400626178666  1.0000
  H   H22       1.0  0.014232333151236603  0.06558066480818082  0.03978599373848565  1.0000
  H   H23       1.0  0.014232333591833148  0.4344193347462687  0.5397859943620527  1.0000
  H   H24       1.0  0.9857676667058108  0.934419334983608  0.960214006096689  1.0000
  H   H25       1.0  0.901983248451019  0.7119139053731967  0.5233283301543263  1.0000
  H   H26       1.0  0.09801675184635232  0.21191390513585756  0.9766716695157506  1.0000
  H   H27       1.0  0.09801675140602852  0.2880860951014816  0.47667166968084823  1.0000
  H   H28       1.0  0.9019832480106953  0.7880860946559312  0.023328330319424023  1.0000
  H   H29       1.0  0.8456376149996204  0.8169088696860309  0.582814538326136  1.0000
  H   H30       1.0  0.15436238529775084  0.3169088701315813  0.917185461343941  1.0000
  H   H31       1.0  0.15436238485742704  0.18309113010575784  0.41718546150903857  1.0000
  H   H32       1.0  0.8456376145592966  0.683091130343097  0.08281453849123374  1.0000
  H   H33       1.0  0.6731196812226529  0.9321441934344055  0.4821742559094504  1.0000
  H   H34       1.0  0.326880319643163  0.432144193879956  0.01782574418997426  1.0000
  H   H35       1.0  0.3268803186343946  0.06785580635738316  0.5178257439257242  1.0000
  H   H36       1.0  0.6731196802138845  0.5678558065947223  0.9821742556452002  1.0000
  H   H37       1.0  0.655127407353083  0.9304168536122878  0.33912372486529396  1.0000
  H   H38       1.0  0.3448725935127329  0.43041685337494867  0.16087627523413067  1.0000
  H   H39       1.0  0.34487259250396446  0.06958314617950093  0.6608762749698807  1.0000
  H   H40       1.0  0.6551274063443145  0.56958314641684  0.839123724601044  1.0000
  H   H41       1.0  0.8840658802937836  0.9499358447506481  0.4180327579165935  1.0000
  H   H42       1.0  0.11593411912293995  0.4499358445133089  0.08196724208367878  1.0000
  H   H43       1.0  0.11593411956326376  0.05006415504114066  0.5819672419185812  1.0000
  H   H44       1.0  0.8840658807341076  0.5500641552784798  0.9180327577514958  1.0000
  H   H45       1.0  0.7623492252383754  0.7974329108343988  0.24946002478049836  1.0000
  H   H46       1.0  0.23765077417834818  0.29743291127994925  0.2505399752197739  1.0000
  H   H47       1.0  0.23765077461867198  0.20256708895738987  0.7505399750546763  1.0000
  H   H48       1.0  0.7623492256786992  0.702567089194729  0.7494600246154007  1.0000
  H   H49       1.0  0.002387518063822929  0.8193049584911997  0.3138977575602133  1.0000
  H   H50       1.0  0.9976124813529007  0.31930495893675004  0.18610224244005896  1.0000
  H   H51       1.0  0.9976124817934973  0.18069504130058908  0.6861022430636259  1.0000
  H   H52       1.0  0.002387518504146724  0.6806950415379283  0.8138977573951156  1.0000
  H   H53       1.0  0.8930418432319902  0.7090007400917053  0.32507207095849266  1.0000
  H   H54       1.0  0.10695815763382573  0.20900074053725579  0.17492792914093191  1.0000
  H   H55       1.0  0.1069581566250573  0.2909992597000834  0.6749279288766818  1.0000
  H   H56       1.0  0.8930418422232217  0.7909992599374225  0.8250720706942427  1.0000
  H   H57       1.0  0.5251568378837218  0.7902906916631056  0.4860066896346202  1.0000
  H   H58       1.0  0.4748431629820941  0.29029069142576647  0.01399331046480442  1.0000
  H   H59       1.0  0.4748431634226907  0.20970930812868313  0.5139933110883713  1.0000
  H   H60       1.0  0.5251568368749533  0.7097093083660223  0.9860066893703702  1.0000
  H   H61       1.0  0.49696316270889873  0.7848556704858408  0.3442210826913837  1.0000
  H   H62       1.0  0.5030368381569171  0.28485567093139125  0.15577891740804092  1.0000
  H   H63       1.0  0.5030368371484215  0.2151443293059479  0.6557789179324556  1.0000
  H   H64       1.0  0.4969631617001303  0.715144329543287  0.8442210824271338  1.0000
  H   H65       1.0  0.6140118356579907  0.6924339570806527  0.4204167300959254  1.0000
  H   H66       1.0  0.385988163758733  0.19243395684331357  0.07958326990434694  1.0000
  H   H67       1.0  0.3859881641993295  0.3075660433940256  0.5795832705279139  1.0000
  H   H68       1.0  0.6140118360983146  0.8075660429484751  0.9204167299308277  1.0000
  C   C1        1.0  0.3735156517039736  0.5054447860526731  0.354914761798191  1.0000
  C   C2        1.0  0.6264843491618423  0.005444785815333938  0.14508523830123363  1.0000
  C   C3        1.0  0.626484348153074  0.49455521442200523  0.6450852380369836  1.0000
  C   C4        1.0  0.37351565069547793  0.9945552139764547  0.8549147623226057  1.0000
  C   C5        1.0  0.3875199769647448  0.5807780161251564  0.2880562685262794  1.0000
  C   C6        1.0  0.6124800224519789  0.08077801588781731  0.21194373147399287  1.0000
  C   C7        1.0  0.6124800228923027  0.4192219843495218  0.7119437313088951  1.0000
  C   C8        1.0  0.3875199774053413  0.9192219839039714  0.7880562691498464  1.0000
  C   C9        1.0  0.5397661260680644  0.5864817796180949  0.22620239771722853  1.0000
  C   C10       1.0  0.46023387479775146  0.08648178006364526  0.27379760238219614  1.0000
  C   C11       1.0  0.46023387378898306  0.4135182201736939  0.773797602117946  1.0000
  C   C12       1.0  0.5397661265083882  0.9135182204110329  0.7262023975521307  1.0000
  C   C13       1.0  0.6783310265250384  0.5161132277947922  0.23073905378247897  1.0000
  C   C14       1.0  0.32166897434077735  0.01611322755745298  0.26926094631694564  1.0000
  C   C15       1.0  0.32166897333200895  0.4838867719969966  0.7692609460526957  1.0000
  C   C16       1.0  0.6783310269653624  0.9838867722343357  0.7307390536173813  1.0000
  C   C17       1.0  0.6655828178069088  0.4409508969850926  0.2994975821718726  1.0000
  C   C18       1.0  0.33441718160981504  0.9409508972224317  0.20050241782839973  1.0000
  C   C19       1.0  0.33441718205013876  0.5590491028066961  0.7005024176633021  1.0000
  C   C20       1.0  0.6655828182475051  0.05904910325224657  0.7994975827954395  1.0000
  C   C21       1.0  0.5125993771317333  0.4351840761514544  0.36093446020159115  1.0000
  C   C22       1.0  0.4874006222849903  0.9351840757059039  0.13906553979868114  1.0000
  C   C23       1.0  0.48740062272531415  0.5648159243232239  0.6390655396335835  1.0000
  C   C24       1.0  0.5125993775720571  0.06481592408588478  0.8609344600364934  1.0000
  C   C25       1.0  0.2123043737301759  0.5004952058091621  0.41942455103998055  1.0000
  C   C26       1.0  0.7876956271356399  0.0004952055718229541  0.08057544905944407  1.0000
  C   C27       1.0  0.7876956261268716  0.49950479398262665  0.5805754487951941  1.0000
  C   C28       1.0  0.2123043741704997  0.9995047942199657  0.9194245508748828  1.0000
  C   C29       1.0  0.12205334878531736  0.815546586925602  0.5239888338668379  1.0000
  C   C30       1.0  0.8779466515123266  0.31554658668826274  0.9760111665919037  1.0000
  C   C31       1.0  0.8779466510720029  0.18445341286618677  0.47601116675700134  1.0000
  C   C32       1.0  0.12205334834472081  0.6844534131035259  0.023988833243270943  1.0000
  C   C33       1.0  0.9100681598304288  0.7863275577063534  0.5161756755692283  1.0000
  C   C34       1.0  0.08993184046694241  0.2863275574690142  0.9838243241008486  1.0000
  C   C35       1.0  0.08993184002661862  0.21367244276832492  0.48382432426594635  1.0000
  C   C36       1.0  0.910068159390105  0.7136724423227745  0.01617567573432596  1.0000
  C   C37       1.0  0.7457947882819249  0.914327717033351  0.41339238553959295  1.0000
  C   C38       1.0  0.2542052125838909  0.41432771747890146  0.08660761455983161  1.0000
  C   C39       1.0  0.25420521157512244  0.0856722827584377  0.5866076142955816  1.0000
  C   C40       1.0  0.7457947887222488  0.5856722829957769  0.9133923853744953  1.0000
  C   C41       1.0  0.8673031249371286  0.782694783874745  0.3190154043990678  1.0000
  C   C42       1.0  0.1326968744795951  0.28269478363740597  0.18098459560120453  1.0000
  C   C43       1.0  0.13269687491991888  0.2173052165999332  0.6809845954361068  1.0000
  C   C44       1.0  0.8673031253774525  0.7173052161543828  0.8190154042339701  1.0000
  C   C45       1.0  0.5900471886745352  0.7662309416872785  0.41705375989107507  1.0000
  C   C46       1.0  0.40995281219128077  0.26623094144993936  0.08294624020834951  1.0000
  C   C47       1.0  0.4099528111825123  0.23376905878739979  0.5829462399440994  1.0000
  C   C48       1.0  0.5900471876657666  0.7337690583418494  0.9170537596268251  1.0000
  N   N1        1.0  0.7816276688101798  0.8132076901225516  0.41602600754001  1.0000
  N   N2        1.0  0.21837233205563616  0.3132076898852124  0.08397399255941462  1.0000
  N   N3        1.0  0.21837233104686776  0.18679231035212673  0.5839739922951647  1.0000
  N   N4        1.0  0.7816276678016839  0.6867923099065762  0.9160260080644246  1.0000
  O   O1        1.0  0.5601023401202597  0.6571310188615613  0.15938514534959736  1.0000
  O   O2        1.0  0.4398976592964639  0.15713101862422219  0.3406148546506749  1.0000
  O   O3        1.0  0.43989765973678774  0.34286898161311696  0.8406148544855773  1.0000
  O   O4        1.0  0.5601023405608563  0.8428689811675666  0.6593851459731643  1.0000
  O   O5        1.0  0.8209738510401023  0.522031940342713  0.16681425574994202  1.0000
  O   O6        1.0  0.17902614837662123  0.022031940105373946  0.3331857442503302  1.0000
  O   O7        1.0  0.179026148816945  0.47796806013196524  0.8331857440852325  1.0000
  O   O8        1.0  0.8209738514804263  0.9779680596864148  0.6668142555848444  1.0000
  O   O9        1.0  0.8073121183841143  0.3776301937736951  0.29842678824477487  1.0000
  O   O10       1.0  0.19268788103260936  0.8776301933281446  0.20157321175549736  1.0000
  O   O11       1.0  0.19268788147293314  0.6223698067009832  0.7015732115903996  1.0000
  O   O12       1.0  0.8073121188244381  0.12236980646364407  0.7984267880796772  1.0000
  O   O13       1.0  0.09864098443183236  0.5734304035727391  0.41439722323948885  1.0000
  O   O14       1.0  0.9013590164339835  0.07343040333539991  0.08560277685993575  1.0000
  O   O15       1.0  0.9013590168743072  0.42656959690193924  0.5856027766948381  1.0000
  O   O16       1.0  0.09864098342306393  0.9265695964563888  0.914397222975239  1.0000
  O   O17       1.0  0.18500186532374813  0.4324644936758437  0.475957977843212  1.0000
  O   O18       1.0  0.8149981355420678  0.9324644939131829  0.024042022256212645  1.0000
  O   O19       1.0  0.8149981345332994  0.5675355061159449  0.5240420219919626  1.0000
  O   O20       1.0  0.1850018643149797  0.06753550587860582  0.975957977578962  1.0000
  O   O21       1.0  0.18065332667491166  0.8774977598694841  0.4683786727537169  1.0000
  O   O22       1.0  0.8193466741909042  0.377497759632145  0.03162132734570775  1.0000
  O   O23       1.0  0.8193466731821358  0.12250224060519417  0.5316213270814577  1.0000
  O   O24       1.0  0.18065332711523546  0.6225022401596437  0.9683786725886192  1.0000
  O   O25       1.0  0.23056616930119933  0.7711508551588728  0.5965310207042499  1.0000
  O   O26       1.0  0.7694338309961719  0.2711508549215336  0.903468978965827  1.0000
  O   O27       1.0  0.769433830555848  0.22884914463291597  0.4034689791309247  1.0000
  O   O28       1.0  0.23056616886087555  0.7288491448702552  0.0965310208693476  1.0000
