data_image0
_chemical_formula_structural       H60C102F20P4S4I10
_chemical_formula_sum              "H60 C102 F20 P4 S4 I10"
_cell_length_a       12.681491449608936
_cell_length_b       15.145994311176054
_cell_length_c       16.440293760209993
_cell_angle_alpha    114.19614641798616
_cell_angle_beta     111.93083573682358
_cell_angle_gamma    93.6266247477006

_space_group_name_H-M_alt    "P 1"
_space_group_IT_number       1

loop_
  _space_group_symop_operation_xyz
  'x, y, z'

loop_
  _atom_site_type_symbol
  _atom_site_label
  _atom_site_symmetry_multiplicity
  _atom_site_fract_x
  _atom_site_fract_y
  _atom_site_fract_z
  _atom_site_occupancy
  H   H1        1.0  0.4466676470632596  0.5584421417969521  0.8479961915614135  1.0000
  H   H2        1.0  0.5533323529592922  0.44155785803296604  0.15200380866611532  1.0000
  H   H3        1.0  0.3351007532917642  0.49157316091328074  0.9156795610468773  1.0000
  H   H4        1.0  0.6648992463437386  0.5084268385652361  0.0843204384385628  1.0000
  H   H5        1.0  0.3304712571583046  0.32060126082096513  0.8983005468303478  1.0000
  H   H6        1.0  0.6695287424771982  0.6793987386575516  0.10169945265509234  1.0000
  H   H7        1.0  0.43024144017512844  0.21324274858862918  0.8078567561999409  1.0000
  H   H8        1.0  0.5697585598474235  0.786757251241289  0.1921432440275882  1.0000
  H   H9        1.0  0.5427272709866076  0.2785755759560855  0.7401594771459877  1.0000
  H   H10       1.0  0.45727272903594435  0.7214244238738327  0.2598405230815411  1.0000
  H   H11       1.0  0.8242365654617866  0.44175286447531475  0.7891431390829151  1.0000
  H   H12       1.0  0.1757634345607655  0.5582471353546034  0.21085686114461386  1.0000
  H   H13       1.0  0.891629265324061  0.3021812459672327  0.6939273998687232  1.0000
  H   H14       1.0  0.10837073469849108  0.6978187538626855  0.30607260035880585  1.0000
  H   H15       1.0  0.7482016188227985  0.16343012598324555  0.5292833658154873  1.0000
  H   H16       1.0  0.2517983808614046  0.8365698741563998  0.47071663366902977  1.0000
  H   H17       1.0  0.5369021021268173  0.1638270070351342  0.4629696563524211  1.0000
  H   H18       1.0  0.46309789834540277  0.8361729931046508  0.5370303431309748  1.0000
  H   H19       1.0  0.46865546555119814  0.29924313052065965  0.5582694185020317  1.0000
  H   H20       1.0  0.5313445340843047  0.7007568689578569  0.44173058098340817  1.0000
  H   H21       1.0  0.6274634438751815  0.6374091345532541  0.7004437913753443  1.0000
  H   H22       1.0  0.37253655614737036  0.36259086527666395  0.29955620885218454  1.0000
  H   H23       1.0  0.4974402617683051  0.6826250634622896  0.5764387922666502  1.0000
  H   H24       1.0  0.502559738302947  0.31737493702875724  0.4235612079599559  1.0000
  H   H25       1.0  0.2884546412945832  0.5845280122232847  0.46729421661268034  1.0000
  H   H26       1.0  0.7115453587279688  0.41547198760663356  0.5327057836148485  1.0000
  H   H27       1.0  0.2101345297746544  0.44095926291813164  0.4841793795873971  1.0000
  H   H28       1.0  0.7898654702965977  0.5590407375729151  0.515820620639209  1.0000
  H   H29       1.0  0.33847780524048054  0.39822244698739856  0.6108890207915397  1.0000
  H   H30       1.0  0.6615221943950221  0.6017775524911182  0.3891109786939001  1.0000
  H   H31       1.0  0.03607522548899766  0.030808428122829815  0.21749020345677605  1.0000
  H   H32       1.0  0.9639247745335544  0.9691915717070884  0.7825097967707528  1.0000
  H   H33       1.0  0.8770341231163985  0.8817980930431787  0.07902942111539343  1.0000
  H   H34       1.0  0.12296587651910443  0.11820190643533801  0.9209705783700465  1.0000
  H   H35       1.0  0.8222596511246577  0.7372696225775556  0.102828611499446  1.0000
  H   H36       1.0  0.1777403485595452  0.26273037756208967  0.8971713879850711  1.0000
  H   H37       1.0  0.9191944741730527  0.7452048023217261  0.2690851163498137  1.0000
  H   H38       1.0  0.08080552589819952  0.2547951981693206  0.7309148838767924  1.0000
  H   H39       1.0  0.07691062915326094  0.8938668567523012  0.4090201005401204  1.0000
  H   H40       1.0  0.923089370869291  0.10613314307761702  0.5909798996874085  1.0000
  H   H41       1.0  0.12544346419031668  0.043784072512932204  0.5635829018869152  1.0000
  H   H42       1.0  0.8745565354451861  0.9562159269655846  0.4364170975985247  1.0000
  H   H43       1.0  0.24364762839520232  0.004096592635410479  0.6964049008805967  1.0000
  H   H44       1.0  0.7563523712403004  0.9959034068431062  0.3035950986048432  1.0000
  H   H45       1.0  0.4519423982000387  0.001039606147630954  0.7324948069339489  1.0000
  H   H46       1.0  0.5480576014354641  0.9989603933308857  0.26750519255149113  1.0000
  H   H47       1.0  0.5421779139405923  0.03831367252391254  0.6365173188749721  1.0000
  H   H48       1.0  0.4578220860819596  0.9616863273060057  0.3634826813525568  1.0000
  H   H49       1.0  0.42139035945325776  0.07332367345371489  0.4984894665973278  1.0000
  H   H50       1.0  0.578609640182245  0.9266763260248018  0.5015105328881121  1.0000
  H   H51       1.0  0.9326967426635552  0.09907969899189012  0.34597835101987406  1.0000
  H   H52       1.0  0.0673032573589966  0.900920300838028  0.6540216492076547  1.0000
  H   H53       1.0  0.836095628106729  0.22838436398390818  0.4152831876533458  1.0000
  H   H54       1.0  0.16390437191582302  0.7716156358460101  0.5847168125741832  1.0000
  H   H55       1.0  0.9517802186149539  0.3763787750628422  0.581372453616999  1.0000
  H   H56       1.0  0.04821978145629815  0.6236212254282045  0.4186275466096071  1.0000
  H   H57       1.0  0.16231710691058973  0.3914947349886661  0.680004267277748  1.0000
  H   H58       1.0  0.8376828931606622  0.6085052655023806  0.3199957329488581  1.0000
  H   H59       1.0  0.25772083607912666  0.2605303033478524  0.6130372678679248  1.0000
  H   H60       1.0  0.7422791636050763  0.7394696967917929  0.3869627316165923  1.0000
  C   C1        1.0  0.07708282358718577  0.5840408639730675  0.9293571448302469  1.0000
  C   C2        1.0  0.9229171764353662  0.4159591358568507  0.07064285539728202  1.0000
  C   C3        1.0  0.03948939198779406  0.5409328853614604  0.8271470596057962  1.0000
  C   C4        1.0  0.960510608484426  0.45906711477832446  0.17285293987759967  1.0000
  C   C5        1.0  0.9793860523735948  0.5863768487667745  0.7719693614908667  1.0000
  C   C6        1.0  0.02061394769765734  0.4136231517242723  0.22803063873573934  1.0000
  C   C7        1.0  0.9569250280006389  0.6783494297848641  0.8177506104068121  1.0000
  C   C8        1.0  0.043074972021912926  0.321650570045054  0.1822493898207168  1.0000
  C   C9        1.0  0.9947255578022951  0.7219725176560946  0.9201625432017008  1.0000
  C   C10       1.0  0.00527444222025675  0.27802748217382356  0.07983745702582819  1.0000
  C   C11       1.0  0.05301035085430068  0.6754820642275139  0.9751773389427365  1.0000
  C   C12       1.0  0.9469896492169515  0.3245179362635329  0.024822661283869635  1.0000
  C   C13       1.0  0.252127653750639  0.7509875425360305  0.8558629418649172  1.0000
  C   C14       1.0  0.747872345933564  0.24901245760361473  0.14413705761959994  1.0000
  C   C15       1.0  0.21194494776037906  0.836909905508299  0.8659053749627246  1.0000
  C   C16       1.0  0.788055051923824  0.16309009463134624  0.13409462452179252  1.0000
  C   C17       1.0  0.21616015747772374  0.9050629396201885  0.9560517545224623  1.0000
  C   C18       1.0  0.7838398425448282  0.09493706020972972  0.04394824570506653  1.0000
  C   C19       1.0  0.2628185053379123  0.8912376454391148  0.04009061693884862  1.0000
  C   C20       1.0  0.7371814942975904  0.10876235403940189  0.9599093825465913  1.0000
  C   C21       1.0  0.30465810416968664  0.8063423121603921  0.030460039809050213  1.0000
  C   C22       1.0  0.6953418958528653  0.19365768766952612  0.9695399604184787  1.0000
  C   C23       1.0  0.299061084330492  0.7372965263421521  0.9401401968321409  1.0000
  C   C24       1.0  0.7009389157407601  0.2627034741488948  0.05985980339446524  1.0000
  C   C25       1.0  0.4347944097088778  0.031198771173762165  0.933752495275053  1.0000
  C   C26       1.0  0.5652055903136742  0.9688012286561561  0.06624750495247596  1.0000
  C   C27       1.0  0.46151556547837735  0.08898483331478793  0.03362584640672948  1.0000
  C   C28       1.0  0.5384844345441746  0.9110151665151303  0.9663741538207995  1.0000
  C   C29       1.0  0.5278894046131923  0.0560075967138334  0.09949069183661631  1.0000
  C   C30       1.0  0.47211059502231056  0.9439924027646833  0.9005093076488238  1.0000
  C   C31       1.0  0.5013573753527562  0.4225336763761835  0.7894324320022523  1.0000
  C   C32       1.0  0.49864262466979575  0.5774663234537346  0.2105675682252765  1.0000
  C   C33       1.0  0.44236482625101864  0.48251665309542036  0.8385959549208301  1.0000
  C   C34       1.0  0.5576351738202335  0.5174833473956264  0.16140404530577598  1.0000
  C   C35       1.0  0.3800935619049953  0.4452390699946678  0.8766907368580571  1.0000
  C   C36       1.0  0.6199064377305076  0.554760929483849  0.12330926262738293  1.0000
  C   C37       1.0  0.37669928322866947  0.34869786548417464  0.8662405797853752  1.0000
  C   C38       1.0  0.6233007167938824  0.6513021343457435  0.13375942044215375  1.0000
  C   C39       1.0  0.43364163849284115  0.2885196884662246  0.8161723916412215  1.0000
  C   C40       1.0  0.5663583611426616  0.711480311012292  0.18382760784421853  1.0000
  C   C41       1.0  0.4966531481443681  0.3251808385257562  0.7778127093496194  1.0000
  C   C42       1.0  0.5033468522791518  0.6748191609529002  0.22218729013469918  1.0000
  C   C43       1.0  0.6427353795088472  0.38027282066239576  0.6805821124458912  1.0000
  C   C44       1.0  0.3572646205137047  0.6197271791675224  0.3194178877816377  1.0000
  C   C45       1.0  0.7617053649310459  0.3805309137771466  0.7177772168734238  1.0000
  C   C46       1.0  0.23829463514020632  0.6194690867139001  0.28222278335318235  1.0000
  C   C47       1.0  0.7993386974396457  0.30218948278688845  0.663736041561953  1.0000
  C   C48       1.0  0.20066130258290618  0.6978105170430297  0.3362639586655759  1.0000
  C   C49       1.0  0.7189282015895939  0.22427909492260092  0.5719546363021623  1.0000
  C   C50       1.0  0.28107179848165836  0.775720905568446  0.42804536392444387  1.0000
  C   C51       1.0  0.6002929653925906  0.22409170731345313  0.5347241845844575  1.0000
  C   C52       1.0  0.3997070346299613  0.775908292516465  0.4652758156430714  1.0000
  C   C53       1.0  0.5618173446212753  0.3012879608057096  0.5889161568171221  1.0000
  C   C54       1.0  0.43818265540127666  0.6987120390242086  0.41108384341040693  1.0000
  C   C55       1.0  0.49184209954480357  0.5143337610349494  0.6630689166101994  1.0000
  C   C56       1.0  0.5081579009274164  0.48566623910483553  0.3369310828731963  1.0000
  C   C57       1.0  0.5359350914732965  0.5946513027868069  0.6532239831234095  1.0000
  C   C58       1.0  0.4640649085492553  0.4053486970431113  0.3467760171041195  1.0000
  C   C59       1.0  0.4625221821532563  0.6199900870019868  0.583431234369899  1.0000
  C   C60       1.0  0.5374778179179959  0.3800099134890602  0.41656876585670716  1.0000
  C   C61       1.0  0.3452813331366177  0.5651669749409497  0.5225769612334027  1.0000
  C   C62       1.0  0.6547186665475853  0.43483302519869543  0.47742303825111443  1.0000
  C   C63       1.0  0.3009676000456426  0.48496758466148326  0.5323048191452293  1.0000
  C   C64       1.0  0.6990323996385605  0.515032415478162  0.4676951803392878  1.0000
  C   C65       1.0  0.3739790519851945  0.4598481858078388  0.60284019789562  1.0000
  C   C66       1.0  0.6260209480373574  0.5401518140220793  0.39715980233190895  1.0000
  C   C67       1.0  0.06753430397431183  0.9723411233583222  0.3224445290893819  1.0000
  C   C68       1.0  0.9324656960969404  0.02765887713272442  0.6775554711372241  1.0000
  C   C69       1.0  0.010442519160275065  0.9685233422363864  0.2292030745225574  1.0000
  C   C70       1.0  0.9895574805239278  0.031476657903259  0.7707969249619596  1.0000
  C   C71       1.0  0.9212148949130938  0.8845294370786424  0.15106498968569468  1.0000
  C   C72       1.0  0.07878510477110912  0.11547056306100291  0.8489350097988225  1.0000
  C   C73       1.0  0.8897401709044577  0.8038631949067393  0.16511422824112618  1.0000
  C   C74       1.0  0.11025982911809416  0.1961368049231789  0.8348857719864028  1.0000
  C   C75       1.0  0.9450988959343763  0.8077615529969606  0.257967537049206  1.0000
  C   C76       1.0  0.05490110492489282  0.1922384474942258  0.7420324631762788  1.0000
  C   C77       1.0  0.03394684521922888  0.8919228767207726  0.3370090227883916  1.0000
  C   C78       1.0  0.966053154464974  0.10807712341887273  0.6629909766961255  1.0000
  C   C79       1.0  0.26582396043629786  0.0584465103447612  0.5210204859968935  1.0000
  C   C80       1.0  0.7341760395862541  0.9415534894851568  0.47897951423063534  1.0000
  C   C81       1.0  0.21559355321433896  0.03983947777390096  0.5772583676073504  1.0000
  C   C82       1.0  0.784406446808213  0.9601605220560173  0.4227416326201786  1.0000
  C   C83       1.0  0.282219894995525  0.01809866141785164  0.6524404479872457  1.0000
  C   C84       1.0  0.7177801050270268  0.9819013384120665  0.3475595522402834  1.0000
  C   C85       1.0  0.39945524201626836  0.017065589942634705  0.6731860620040502  1.0000
  C   C86       1.0  0.6005447580549838  0.9829344105484119  0.3268139382225559  1.0000
  C   C87       1.0  0.45002444361696936  0.03733053335965087  0.6184596135327262  1.0000
  C   C88       1.0  0.5499755564055826  0.9626694664702673  0.3815403866948028  1.0000
  C   C89       1.0  0.38308515145966604  0.05711849355254763  0.5417117129863225  1.0000
  C   C90       1.0  0.6169148481758366  0.9428815059259691  0.45828828649911746  1.0000
  C   C91       1.0  0.10179095723347124  0.17253250104988144  0.4740218636890037  1.0000
  C   C92       1.0  0.8982090428377809  0.8274674994411654  0.5259781365376024  1.0000
  C   C93       1.0  0.9828079365855598  0.16293105663590748  0.41914769632798893  1.0000
  C   C94       1.0  0.01719206304994312  0.8370689428426094  0.5808523031574511  1.0000
  C   C95       1.0  0.9287371647146634  0.23601837112415522  0.458168379255534  1.0000
  C   C96       1.0  0.07126283530788853  0.7639816287057629  0.541831620971995  1.0000
  C   C97       1.0  0.9934692593286215  0.31887986744156716  0.5511722125331384  1.0000
  C   C98       1.0  0.006530740355581381  0.6811201326980781  0.4488277869513787  1.0000
  C   C99       1.0  0.11201512032484702  0.3278404012499591  0.6066320597057744  1.0000
  C   C100      1.0  0.8879848800986729  0.6721595982286972  0.3933679397785443  1.0000
  C   C101      1.0  0.16609164534374216  0.2546288900742476  0.5686979247054873  1.0000
  C   C102      1.0  0.83390835472751  0.7453711104167993  0.43130207552111877  1.0000
  F   F1        1.0  0.0608108316421325  0.4518705346144882  0.7790501405654903  1.0000
  F   F2        1.0  0.9391891684291197  0.5481294658765588  0.22094985966111588  1.0000
  F   F3        1.0  0.9419175295091058  0.5390060130068468  0.6719364031933203  1.0000
  F   F4        1.0  0.058082470513446276  0.46099398682307136  0.32806359703420873  1.0000
  F   F5        1.0  0.9748895669853054  0.8113814351972429  0.96800932794598  1.0000
  F   F6        1.0  0.02511043308594668  0.1886185652938039  0.031990672280626006  1.0000
  F   F7        1.0  0.08712690474787353  0.7212117968717059  0.07427934549071734  1.0000
  F   F8        1.0  0.9128730952746784  0.2787882029582123  0.9257206547368116  1.0000
  F   F9        1.0  0.16932527664697097  0.8560914728830668  0.7877570715576093  1.0000
  F   F10       1.0  0.8306747230372321  0.1439085272565787  0.2122429279269079  1.0000
  F   F11       1.0  0.17383492968274217  0.985850839036633  0.9604973408264433  1.0000
  F   F12       1.0  0.826165071127827  0.014149160793424823  0.039502659399964314  1.0000
  F   F13       1.0  0.35020573109212383  0.7884186345533485  0.10912996468075939  1.0000
  F   F14       1.0  0.6497942697184452  0.21158136527670934  0.8908700355456481  1.0000
  F   F15       1.0  0.3392469469746926  0.6555889626838777  0.9353799855109592  1.0000
  F   F16       1.0  0.6607530530478593  0.34441103714604043  0.06462001471656974  1.0000
  F   F17       1.0  0.3700383070415529  0.059458924830589475  0.8662568625856046  1.0000
  F   F18       1.0  0.62996169259395  0.9405410746479272  0.13374313689983527  1.0000
  F   F19       1.0  0.5584612846221482  0.10904774200796004  0.1979289945033249  1.0000
  F   F20       1.0  0.4415387150620549  0.8909522581316853  0.8020710049811922  1.0000
  P   P1        1.0  0.5901176014634004  0.4790907707534446  0.7506553229548343  1.0000
  P   P2        1.0  0.40988239855915165  0.5209092290764736  0.24934467727269477  1.0000
  P   P3        1.0  0.1786984767009788  0.08538510761439062  0.42253677429332737  1.0000
  P   P4        1.0  0.8213015229832243  0.9146148925252546  0.5774632251911898  1.0000
  S   S1        1.0  0.7190945805757106  0.5965492083447355  0.8643806245586612  1.0000
  S   S2        1.0  0.2809054190597922  0.4034507911337813  0.13561937492677895  1.0000
  S   S3        1.0  0.27996905604358596  0.14499645836140665  0.3803970153970479  1.0000
  S   S4        1.0  0.720030943640617  0.8550035417782386  0.619602984087469  1.0000
  I   I1        1.0  0.1661890972327476  0.5117760863349804  0.010296365322290862  1.0000
  I   I2        1.0  0.8338109027898044  0.48822391349493777  0.989703634905238  1.0000
  I   I3        1.0  0.8679053795565301  0.7487060659440282  0.7352378558782123  1.0000
  I   I4        1.0  0.13209462051472187  0.2512939345470186  0.2647621443483938  1.0000
  I   I5        1.0  0.24535323974865186  0.6475526229192133  0.7214390307108692  1.0000
  I   I6        1.0  0.7546467598868509  0.3524473765593034  0.27856096877457076  1.0000
  I   I7        1.0  0.26596936019315476  0.9913852130683546  0.1760994408854124  1.0000
  I   I8        1.0  0.7340306398293971  0.008614786761563568  0.8239005593421165  1.0000
  I   I9        1.0  0.39987097046861986  0.21861984875191687  0.08027772817801489  1.0000
  I   I10       1.0  0.6001290296026324  0.78138015173913  0.9197222720485912  1.0000
