data_image0
_chemical_formula_structural       H14C22N2
_chemical_formula_sum              "H14 C22 N2"
_cell_length_a       6.251789810597822
_cell_length_b       6.958774156896325
_cell_length_c       9.698937464066187
_cell_angle_alpha    104.363221206037
_cell_angle_beta     99.90744387737857
_cell_angle_gamma    92.07312815321735

_space_group_name_H-M_alt    "P 1"
_space_group_IT_number       1

loop_
  _space_group_symop_operation_xyz
  'x, y, z'

loop_
  _atom_site_type_symbol
  _atom_site_label
  _atom_site_symmetry_multiplicity
  _atom_site_fract_x
  _atom_site_fract_y
  _atom_site_fract_z
  _atom_site_occupancy
  H   H1        1.0  0.6665525504336618  0.13678102869773617  0.9718173732463163  1.0000
  H   H2        1.0  0.33344744911706836  0.8632189717177706  0.028182626773569176  1.0000
  H   H3        1.0  0.9647843048108294  0.23416322486118982  0.18620961133695849  1.0000
  H   H4        1.0  0.03521569473990063  0.7658367755543171  0.8137903886829271  1.0000
  H   H5        1.0  0.5245904340060672  0.6030174173220898  0.4108758352571137  1.0000
  H   H6        1.0  0.47540956540947066  0.39698258160506095  0.58912416446892  1.0000
  H   H7        1.0  0.2434831209213355  0.49149897430564965  0.18546624503260561  1.0000
  H   H8        1.0  0.7565168786293947  0.5085010261098573  0.8145337549872799  1.0000
  H   H9        1.0  0.14151474754382812  0.9142248508623382  0.556256731989439  1.0000
  H   H10       1.0  0.8584852518717099  0.08577514806481261  0.4437432677365948  1.0000
  H   H11       1.0  0.5376976498569462  0.9869434185917894  0.247180800037702  1.0000
  H   H12       1.0  0.4623023496937839  0.013056581823717408  0.7528191999821835  1.0000
  H   H13       1.0  0.8275828935070801  0.7733668516904095  0.09366075348227514  1.0000
  H   H14       1.0  0.17241710766734197  0.22663314872450283  0.9063392467213918  1.0000
  C   C1        1.0  0.6393009571916421  0.2405005894372713  0.07058950943048203  1.0000
  C   C2        1.0  0.36069904235908795  0.7594994109782355  0.9294104905894035  1.0000
  C   C3        1.0  0.8079727763255825  0.29616551008494896  0.1900231408317968  1.0000
  C   C4        1.0  0.19202722308995535  0.7038344888422016  0.809976858894237  1.0000
  C   C5        1.0  0.7694026451033537  0.4278760682954288  0.31742300074433916  1.0000
  C   C6        1.0  0.23059735593587635  0.5721239306311273  0.6825769991654762  1.0000
  C   C7        1.0  0.5617345224441841  0.49978555800995395  0.3154229736211173  1.0000
  C   C8        1.0  0.4382654787302381  0.5002144424049585  0.6845770265825497  1.0000
  C   C9        1.0  0.4048560423424484  0.4357158687426841  0.1897297252985625  1.0000
  C   C10       1.0  0.5951439572082817  0.5642841316728229  0.8102702747213231  1.0000
  C   C11       1.0  0.9313407613303224  0.4806344501745033  0.44459497384606567  1.0000
  C   C12       1.0  0.06865923984409976  0.5193655502404092  0.5554050263576013  1.0000
  C   C13       1.0  0.29838932802461765  0.9518271236745982  0.5316528296788625  1.0000
  C   C14       1.0  0.7016106715261126  0.04817287674090877  0.468347170341023  1.0000
  C   C15       1.0  0.31565634063810216  0.9437594512051192  0.387377735804561  1.0000
  C   C16       1.0  0.6843436589126279  0.05624054921038773  0.6126222642153245  1.0000
  C   C17       1.0  0.5205042645876847  0.9934144180335477  0.35791904929818336  1.0000
  C   C18       1.0  0.47949573496304543  0.006585582381959203  0.6420809507217021  1.0000
  C   C19       1.0  0.13091304104956678  0.8807382654958472  0.27406667849959754  1.0000
  C   C20       1.0  0.8690869583659712  0.11926173343130338  0.7259333212264363  1.0000
  C   C21       1.0  0.9723926078480485  0.8222234610541005  0.17790273325360978  1.0000
  C   C22       1.0  0.02760739170268146  0.17777653936140642  0.8220972667662757  1.0000
  N   N1        1.0  0.43966100765719385  0.3065614482662088  0.0688775556290619  1.0000
  N   N2        1.0  0.5603389918935362  0.6934385521492982  0.9311224443908236  1.0000
