data_image0
_chemical_formula_structural       H92C56N12O4S8
_chemical_formula_sum              "H92 C56 N12 O4 S8"
_cell_length_a       6.327166665201039
_cell_length_b       26.765600953931084
_cell_length_c       9.782619807539335
_cell_angle_alpha    90.0
_cell_angle_beta     108.69064993244733
_cell_angle_gamma    90.0

_space_group_name_H-M_alt    "P 1"
_space_group_IT_number       1

loop_
  _space_group_symop_operation_xyz
  'x, y, z'

loop_
  _atom_site_type_symbol
  _atom_site_label
  _atom_site_symmetry_multiplicity
  _atom_site_fract_x
  _atom_site_fract_y
  _atom_site_fract_z
  _atom_site_occupancy
  H   H1        1.0  0.016923443071135552  0.5838585360701495  0.2819161193111518  1.0000
  H   H2        1.0  0.9830765572852131  0.08385853595677795  0.21808388016834201  1.0000
  H   H3        1.0  0.9830765569473291  0.4161414641565936  0.7180838808088558  1.0000
  H   H4        1.0  0.016923442733251536  0.9161414638963512  0.7819161199516655  1.0000
  H   H5        1.0  0.4800247511514417  0.651273643360501  0.24469935569992518  1.0000
  H   H6        1.0  0.5199752497412188  0.15127364324712947  0.2553006448586998  1.0000
  H   H7        1.0  0.519975248867023  0.3487263564926281  0.7553006444200824  1.0000
  H   H8        1.0  0.480024750277246  0.8487263566059997  0.7446993552613078  1.0000
  H   H9        1.0  0.6198425239764446  0.529640582118816  0.44130923393775207  1.0000
  H   H10       1.0  0.380157476916216  0.029640582005444577  0.058690766620872824  1.0000
  H   H11       1.0  0.3801574760420201  0.4703594181079269  0.5586907661822554  1.0000
  H   H12       1.0  0.6198425231022489  0.9703594178476845  0.9413092334991349  1.0000
  H   H13       1.0  0.7091918756622233  0.4660386546698464  0.4604839159684208  1.0000
  H   H14       1.0  0.2908081252304372  0.9660386547832178  0.03951608459020417  1.0000
  H   H15       1.0  0.29080812435624137  0.5339613451832829  0.5395160841515868  1.0000
  H   H16       1.0  0.7091918747880276  0.033961345069911275  0.9604839155298034  1.0000
  H   H17       1.0  0.8375495348985839  0.5088860714707594  0.6925783522516564  1.0000
  H   H18       1.0  0.16245046424568518  0.008886071357387853  0.8074216474297338  1.0000
  H   H19       1.0  0.1624504645835692  0.4911139283823698  0.30742164678922007  1.0000
  H   H20       1.0  0.8375495357727796  0.9911139284957413  0.19257835269027376  1.0000
  H   H21       1.0  0.9683970100790275  0.5569922538133938  0.6232195029768277  1.0000
  H   H22       1.0  0.0316029890652415  0.056992253700022324  0.8767804967045625  1.0000
  H   H23       1.0  0.031602989939437325  0.44300774641334917  0.37678049714317985  1.0000
  H   H24       1.0  0.9683970109532233  0.9430077461531069  0.12321950341544509  1.0000
  H   H25       1.0  0.6720346567002552  0.46146832239109237  0.2050493982424565  1.0000
  H   H26       1.0  0.32796534365609353  0.9614683225044639  0.2949506012370374  1.0000
  H   H27       1.0  0.3279653433182095  0.5385316774620368  0.7949506018775511  1.0000
  H   H28       1.0  0.6720346563623711  0.03853167734866527  0.7050493988829702  1.0000
  H   H29       1.0  0.5604055671662169  0.5228106484171724  0.2024752415209104  1.0000
  H   H30       1.0  0.4395944321465112  0.022810648303800904  0.2975247590388305  1.0000
  H   H31       1.0  0.43959443285224786  0.4771893518095706  0.7975247585990972  1.0000
  H   H32       1.0  0.5604055678719535  0.9771893519229421  0.702475241081177  1.0000
  H   H33       1.0  0.6735308037938331  0.5009484581750341  0.9870159240708902  1.0000
  H   H34       1.0  0.32646919693036824  0.0009484584352764748  0.512984075609384  1.0000
  H   H35       1.0  0.3264691962246316  0.499051541678095  0.012984076049117327  1.0000
  H   H36       1.0  0.6735308030880964  0.9990515417914666  0.4870159245106236  1.0000
  H   H37       1.0  0.9521157354992422  0.49652406433445395  0.09500641036292114  1.0000
  H   H38       1.0  0.04788426485710648  0.9965240644478255  0.40499358911657274  1.0000
  H   H39       1.0  0.047884264519222446  0.5034759355186752  0.9049935897570864  1.0000
  H   H40       1.0  0.9521157346250464  0.003475935778917596  0.5950064099243038  1.0000
  H   H41       1.0  0.6658480293155998  0.590917609405555  0.07097943322112178  1.0000
  H   H42       1.0  0.3341519715770608  0.09091760929218347  0.4290205673375032  1.0000
  H   H43       1.0  0.33415197070286484  0.40908239044757416  0.9290205668988857  1.0000
  H   H44       1.0  0.6658480284414039  0.9090823905609458  0.5709794327825043  1.0000
  H   H45       1.0  0.8408949938330459  0.5802920598246019  0.9634233452442844  1.0000
  H   H46       1.0  0.1591050053112231  0.0802920597112304  0.5365766544371058  1.0000
  H   H47       1.0  0.15910500618541895  0.41970794040214116  0.03657665487572327  1.0000
  H   H48       1.0  0.8408949941709298  0.9197079401418988  0.4634233446037706  1.0000
  H   H49       1.0  0.7221338934003246  0.6189023324569531  0.46902994997904557  1.0000
  H   H50       1.0  0.27786610537609163  0.11890233234358163  0.030970049501564238  1.0000
  H   H51       1.0  0.27786610661814004  0.3810976677697899  0.5309700501409619  1.0000
  H   H52       1.0  0.7221338946423731  0.8810976675095475  0.9690299506184433  1.0000
  H   H53       1.0  0.7944726549955112  0.6208714528249476  0.7360825012610431  1.0000
  H   H54       1.0  0.20552734626500213  0.12087145271157619  0.7639174994983623  1.0000
  H   H55       1.0  0.20552734502295367  0.37912854740179536  0.2639174988589645  1.0000
  H   H56       1.0  0.7944726537534628  0.879128547141553  0.23608250062164535  1.0000
  H   H57       1.0  0.47963698080352074  0.6360373701043197  0.8318746255105531  1.0000
  H   H58       1.0  0.5203630183407482  0.13603736999094823  0.6681253741708372  1.0000
  H   H59       1.0  0.520363019214944  0.3639626301224233  0.16812537460945448  1.0000
  H   H60       1.0  0.4796369816777166  0.863962629862181  0.3318746259491705  1.0000
  H   H61       1.0  0.09939887039132478  0.6512598439318749  0.6623366077874512  1.0000
  H   H62       1.0  0.9006011303328766  0.15125984381850333  0.837663391892823  1.0000
  H   H63       1.0  0.9006011296271401  0.3487401562948682  0.3376633923325564  1.0000
  H   H64       1.0  0.09939886968558814  0.8487401560346258  0.16233660822718457  1.0000
  H   H65       1.0  0.02913292552429844  0.6529014338246489  0.3979968084946787  1.0000
  H   H66       1.0  0.9708670753683621  0.15290143408489137  0.10200319206394624  1.0000
  H   H67       1.0  0.9708670744941664  0.3470985660284801  0.6020031916253289  1.0000
  H   H68       1.0  0.02913292465010261  0.8470985661418517  0.8979968080560613  1.0000
  H   H69       1.0  0.6524307646536521  0.27879951482666093  0.021046157022813067  1.0000
  H   H70       1.0  0.34756923465907597  0.7787995145664186  0.4789538435369278  1.0000
  H   H71       1.0  0.34756923536481266  0.7212004854000821  0.9789538430971945  1.0000
  H   H72       1.0  0.6524307653593887  0.2212004852867106  0.5210461565830796  1.0000
  H   H73       1.0  0.46715789733151103  0.2436550601357662  0.09296148797079344  1.0000
  H   H74       1.0  0.5328421035611496  0.7436550598755238  0.4070385125878315  1.0000
  H   H75       1.0  0.5328421026869538  0.7563449400909769  0.907038512149214  1.0000
  H   H76       1.0  0.46715789645731515  0.2563449399776053  0.5929614875321761  1.0000
  H   H77       1.0  0.4995833142867223  0.2256252512467144  0.9225395109968062  1.0000
  H   H78       1.0  0.5004166853938583  0.7256252513600859  0.577460489763715  1.0000
  H   H79       1.0  0.5004166857317425  0.7743747489800287  0.0774604891232013  1.0000
  H   H80       1.0  0.4995833146246063  0.27437474886665714  0.42253951035629256  1.0000
  H   H81       1.0  0.0777367439762532  0.22530951650888634  0.806133994378135  1.0000
  H   H82       1.0  0.9222632557043275  0.7253095166222578  0.6938660063823863  1.0000
  H   H83       1.0  0.9222632560422117  0.7746904833442428  0.1938660057418726  1.0000
  H   H84       1.0  0.07773674431413717  0.2746904832308713  0.30613399373762124  1.0000
  H   H85       1.0  0.8969417021275132  0.2767464292226955  0.8146830184260063  1.0000
  H   H86       1.0  0.1030582991330001  0.776746429336067  0.6853169823333991  1.0000
  H   H87       1.0  0.10305829789095165  0.7232535706304337  0.18531698169400135  1.0000
  H   H88       1.0  0.8969417008854648  0.22325357051706216  0.3146830177866085  1.0000
  H   H89       1.0  0.042336788734144835  0.24273173246445642  0.9760444849465881  1.0000
  H   H90       1.0  0.9576632104101241  0.7427317325778279  0.5239555147348021  1.0000
  H   H91       1.0  0.95766321128432  0.7572682673886728  0.023955515173419522  1.0000
  H   H92       1.0  0.04233678960834056  0.2572682676489151  0.4760444853852054  1.0000
  C   C1        1.0  0.7672091368505972  0.5053731561373119  0.46418459631399767  1.0000
  C   C2        1.0  0.23279086246213096  0.0053731563975542886  0.03581540424574326  1.0000
  C   C3        1.0  0.23279086316786762  0.4946268437158172  0.5358154038060099  1.0000
  C   C4        1.0  0.7672091375563338  0.9946268438291888  0.9641845958742644  1.0000
  C   C5        1.0  0.9243819833638143  0.5167419145120536  0.613999021944485  1.0000
  C   C6        1.0  0.07561801736038694  0.016741914398682167  0.8860009777357891  1.0000
  C   C7        1.0  0.07561801665465036  0.48325808534107545  0.38600097817552254  1.0000
  C   C8        1.0  0.9243819826580777  0.9832580854544469  0.11399902238421837  1.0000
  C   C9        1.0  0.7144872892536017  0.5018317916014232  0.21154142907756301  1.0000
  C   C10       1.0  0.2855127116390588  0.0018317914880517216  0.28845857148106196  1.0000
  C   C11       1.0  0.28551271076486295  0.49816820825170594  0.7884585710424445  1.0000
  C   C12       1.0  0.714487288379406  0.9981682083650774  0.7115414286389456  1.0000
  C   C13       1.0  0.7947799308960777  0.5156681485970097  0.08577229445101009  1.0000
  C   C14       1.0  0.20522006946027094  0.01566814848363818  0.4142277050284838  1.0000
  C   C15       1.0  0.20522007070231937  0.48433185125611944  0.9142277056678815  1.0000
  C   C16       1.0  0.7947799305581937  0.984331851369491  0.5857722950915238  1.0000
  C   C17       1.0  0.8184998749423856  0.5716844268259428  0.06757436936661468  1.0000
  C   C18       1.0  0.18150012595027504  0.07168442671257125  0.4324256311920102  1.0000
  C   C19       1.0  0.1815001250760792  0.4283155734008003  0.9324256307533928  1.0000
  C   C20       1.0  0.8184998740681897  0.9283155731405579  0.5675743689279973  1.0000
  C   C21       1.0  0.17863536233837013  0.6173122086232588  0.15308946092079403  1.0000
  C   C22       1.0  0.8213646380179788  0.11731220850988723  0.3469105385586998  1.0000
  C   C23       1.0  0.8213646376800946  0.3826877916034843  0.8469105391992136  1.0000
  C   C24       1.0  0.17863536146417425  0.8826877913432419  0.6530894604821766  1.0000
  C   C25       1.0  0.370587631675235  0.6335922111066703  0.41677658627860975  1.0000
  C   C26       1.0  0.6294123686811137  0.13359221099329874  0.0832234132008841  1.0000
  C   C27       1.0  0.6294123683432298  0.36640778874645885  0.5832234138413979  1.0000
  C   C28       1.0  0.3705876308010391  0.8664077888598304  0.9167765858399922  1.0000
  C   C29       1.0  0.5865947742862317  0.6255874470676049  0.5130073834952242  1.0000
  C   C30       1.0  0.41340522697428156  0.1255874473278473  0.9869926172641812  1.0000
  C   C31       1.0  0.41340522573223304  0.3744125527855242  0.4869926166247833  1.0000
  C   C32       1.0  0.5865947730441833  0.8744125528988957  0.013007382855826482  1.0000
  C   C33       1.0  0.6262668212853132  0.6268345847671266  0.6614758658283856  1.0000
  C   C34       1.0  0.37373317839526754  0.12683458502736894  0.8385241349321357  1.0000
  C   C35       1.0  0.37373317873315165  0.37316541508600254  0.3385241342916221  1.0000
  C   C36       1.0  0.6262668216231971  0.8731654151993741  0.16147586518787177  1.0000
  C   C37       1.0  0.45039170172673404  0.6355145486655602  0.7158783926073536  1.0000
  C   C38       1.0  0.5496082995337791  0.1355145489258025  0.7841216081520517  1.0000
  C   C39       1.0  0.5496082982917306  0.36448545118756903  0.28412160751265386  1.0000
  C   C40       1.0  0.45039170048468574  0.8644854513009406  0.21587839196795594  1.0000
  C   C41       1.0  0.2361065129411569  0.6437909311156043  0.6201772410636573  1.0000
  C   C42       1.0  0.7638934862031119  0.14379093137584664  0.8798227586177326  1.0000
  C   C43       1.0  0.7638934870773078  0.3562090687375249  0.3798227590563502  1.0000
  C   C44       1.0  0.23610651381535278  0.8562090688508964  0.1201772415022748  1.0000
  C   C45       1.0  0.19459241624639825  0.6435131166920538  0.47120796142762744  1.0000
  C   C46       1.0  0.8054075830663299  0.1435131165786822  0.028792039132113503  1.0000
  C   C47       1.0  0.8054075837720667  0.35648688353468927  0.5287920386923802  1.0000
  C   C48       1.0  0.194592416952135  0.8564868832744469  0.9712079609878942  1.0000
  C   C49       1.0  0.4981597263060758  0.25685378377391843  0.9947649320628642  1.0000
  C   C50       1.0  0.501840272838193  0.7568537838872899  0.5052350676185259  1.0000
  C   C51       1.0  0.5018402737123888  0.7431462160792107  0.0052350680571433255  1.0000
  C   C52       1.0  0.4981597271802717  0.2431462159658392  0.4947649325014816  1.0000
  C   C53       1.0  0.04960519467573397  0.25624755490470946  0.8718419611142432  1.0000
  C   C54       1.0  0.9503948044685351  0.7562475550180809  0.6281580385671471  1.0000
  C   C55       1.0  0.950394804806419  0.7437524449484197  0.12815803792663336  1.0000
  C   C56       1.0  0.04960519554992976  0.24375244483504818  0.3718419615528605  1.0000
  N   N1        1.0  0.873796523093327  0.5140937864120347  0.353517277507131  1.0000
  N   N2        1.0  0.12620347568308932  0.014093786298663176  0.14648272197347878  1.0000
  N   N3        1.0  0.12620347692513767  0.4859062134410944  0.6464827226128764  1.0000
  N   N4        1.0  0.8737965237990638  0.985906213554466  0.8535172770673978  1.0000
  N   N5        1.0  0.01007486034249162  0.5924551104715998  0.178482097448378  1.0000
  N   N6        1.0  0.9899251400138572  0.0924551107318422  0.32151790203111585  1.0000
  N   N7        1.0  0.9899251396759732  0.4075448893815293  0.8215179026716295  1.0000
  N   N8        1.0  0.010074860004607533  0.9075448894949009  0.6784820980888917  1.0000
  N   N9        1.0  0.3470732626808326  0.6349705534074278  0.2685821589160607  1.0000
  N   N10       1.0  0.6529267360955837  0.1349705532940563  0.2314178405645491  1.0000
  N   N11       1.0  0.6529267368013205  0.3650294468193152  0.7314178401248158  1.0000
  N   N12       1.0  0.34707326392288107  0.8650294465590728  0.7685821595554585  1.0000
  O   O1        1.0  0.2990770950742701  0.308369543960782  0.7543499165516186  1.0000
  O   O2        1.0  0.7009229040699987  0.8083695437005396  0.7456500831297715  1.0000
  O   O3        1.0  0.7009229049441946  0.6916304562659611  0.24565008356838894  1.0000
  O   O4        1.0  0.2990770954121541  0.19163045615258953  0.25434991591110484  1.0000
  S   S1        1.0  0.19514597647236448  0.6268704890609124  0.9852379636027666  1.0000
  S   S2        1.0  0.8048540226719045  0.12687048894754074  0.5147620360786237  1.0000
  S   S3        1.0  0.8048540235461004  0.3731295107922169  0.014762036517241048  1.0000
  S   S4        1.0  0.19514597734656028  0.8731295109055884  0.485237964041384  1.0000
  S   S5        1.0  0.2783260657801449  0.2994119644013816  0.903566322939353  1.0000
  S   S6        1.0  0.721673933364124  0.799411964514753  0.5964336767420373  1.0000
  S   S7        1.0  0.7216739342383198  0.7005880354517476  0.09643367718065465  1.0000
  S   S8        1.0  0.27832606665434073  0.20058803571198994  0.4035663233779703  1.0000
