data_image0
_chemical_formula_structural       H56C54N2O6F8I2
_chemical_formula_sum              "H56 C54 N2 O6 F8 I2"
_cell_length_a       5.8919402683213695
_cell_length_b       13.94676277035931
_cell_length_c       15.365159531381082
_cell_angle_alpha    79.51349362266782
_cell_angle_beta     90.03178450368068
_cell_angle_gamma    85.3717143785306

_space_group_name_H-M_alt    "P 1"
_space_group_IT_number       1

loop_
  _space_group_symop_operation_xyz
  'x, y, z'

loop_
  _atom_site_type_symbol
  _atom_site_label
  _atom_site_symmetry_multiplicity
  _atom_site_fract_x
  _atom_site_fract_y
  _atom_site_fract_z
  _atom_site_occupancy
  H   H1        1.0  0.34035563508402195  0.7878165083044444  0.04998069777026535  1.0000
  H   H2        1.0  0.659644364634533  0.21218349202390308  0.9500193023172189  1.0000
  H   H3        1.0  0.5665792834076633  0.919172215316379  0.9733354741228004  1.0000
  H   H4        1.0  0.43342071631089163  0.0808277850119685  0.02666452596468373  1.0000
  H   H5        1.0  0.10014699625111954  0.6932046727853294  0.9490604708779712  1.0000
  H   H6        1.0  0.8998530036038127  0.30679532682456906  0.05093952920509108  1.0000
  H   H7        1.0  0.8516731388193461  0.5724868942135714  0.029841933294114206  1.0000
  H   H8        1.0  0.1483268608749699  0.42751310625321226  0.9701580661314279  1.0000
  H   H9        1.0  0.16233573815182373  0.856685052193589  0.8839471204494267  1.0000
  H   H10       1.0  0.8376642616788696  0.1433149475547454  0.11605287897169365  1.0000
  H   H11       1.0  0.8039088344517691  0.019661553790351095  0.915433921024534  1.0000
  H   H12       1.0  0.19609116526678588  0.9803384465379964  0.08456607906295015  1.0000
  H   H13       1.0  0.38721611214296564  0.9526309092139098  0.8210355941403992  1.0000
  H   H14       1.0  0.6127838875755893  0.04736909111443761  0.17896440594708496  1.0000
  H   H15       1.0  0.623705276628716  0.07662794451497826  0.7416354363111902  1.0000
  H   H16       1.0  0.37629472308983886  0.9233720558133692  0.25836456377629397  1.0000
  H   H17       1.0  0.10879181515330173  0.3048473081450476  0.775439724145417  1.0000
  H   H18       1.0  0.8912081845652532  0.6951526921832999  0.22456027594206726  1.0000
  H   H19       1.0  0.8696400320711616  0.1814225396450396  0.851453434061781  1.0000
  H   H20       1.0  0.13035996764739335  0.818577460683308  0.14854656602570313  1.0000
  H   H21       1.0  0.42979898267363076  0.3888360781127965  0.7547563366167405  1.0000
  H   H22       1.0  0.5702010171813016  0.6111639214971017  0.24524366346632182  1.0000
  H   H23       1.0  0.29136409991543744  0.3750336738145047  0.65496868167275  1.0000
  H   H24       1.0  0.7086359016368445  0.6249663257947794  0.34503131841154266  1.0000
  H   H25       1.0  0.6683851265565524  0.3848708742499206  0.5779815361869287  1.0000
  H   H26       1.0  0.3316148748593523  0.6151291260778126  0.4220184639017858  1.0000
  H   H27       1.0  0.7980346418055384  0.40342947534145013  0.6768422934096036  1.0000
  H   H28       1.0  0.20196535791301654  0.5965705249868974  0.3231577066778807  1.0000
  H   H29       1.0  0.5372648823754097  0.5575478341254062  0.6723656068509187  1.0000
  H   H30       1.0  0.46273511734314515  0.44245216620294137  0.32763439323656535  1.0000
  H   H31       1.0  0.4120356383955603  0.5390584065908095  0.5736602350778124  1.0000
  H   H32       1.0  0.5879643613229946  0.46094159373753807  0.42633976500967175  1.0000
  H   H33       1.0  0.9202779561979241  0.5698628009394555  0.5964432482924641  1.0000
  H   H34       1.0  0.07972204535435787  0.43013719866982847  0.40355675179182854  1.0000
  H   H35       1.0  0.7111810557292519  0.6595532914749448  0.5435212316656782  1.0000
  H   H36       1.0  0.2888189441256802  0.34044670813495354  0.456478768417384  1.0000
  H   H37       1.0  0.7895688971951457  0.5545159558637711  0.49680276646091776  1.0000
  H   H38       1.0  0.21043110252340935  0.44548404446457646  0.5031972336265663  1.0000
  H   H39       1.0  0.4963416357238061  0.14937507392522548  0.5858120729218949  1.0000
  H   H40       1.0  0.5036583641311262  0.8506249256846729  0.4141879271611673  1.0000
  H   H41       1.0  0.5173031482086383  0.08123673598386444  0.49750412152948936  1.0000
  H   H42       1.0  0.48269685150991654  0.9187632643444831  0.5024958785579947  1.0000
  H   H43       1.0  0.6680003336542407  0.26720835694901457  0.47541798606372243  1.0000
  H   H44       1.0  0.33199966606431425  0.732791643379333  0.5245820140237617  1.0000
  H   H45       1.0  0.8134498170469078  0.17423457994635266  0.4269001123032587  1.0000
  H   H46       1.0  0.18655018267164722  0.825765420381995  0.5730998877842254  1.0000
  H   H47       1.0  0.11625376711932948  0.21569332139849715  0.5170794496600429  1.0000
  H   H48       1.0  0.8837462325992254  0.7843066789298504  0.4829205504274412  1.0000
  H   H49       1.0  0.926464660801626  0.23237114970148234  0.6046285023399579  1.0000
  H   H50       1.0  0.07353533891692896  0.7676288506268651  0.39537149774752633  1.0000
  H   H51       1.0  0.1085708872628838  0.04060327342945938  0.5500986230045446  1.0000
  H   H52       1.0  0.8914291124556711  0.9593967268988882  0.44990137708293954  1.0000
  H   H53       1.0  0.06857318067966595  0.06566559595636462  0.6597360750158072  1.0000
  H   H54       1.0  0.931426819038889  0.9343344043719828  0.3402639250716769  1.0000
  H   H55       1.0  0.5726531529255655  0.3893126050451739  0.9145703066444256  1.0000
  H   H56       1.0  0.4273468484903391  0.6106873952825593  0.08542969344428906  1.0000
  C   C1        1.0  0.7311160738161648  0.712344455534532  0.756523248961324  1.0000
  C   C2        1.0  0.26888392603876726  0.2876555440753666  0.24347675112173836  1.0000
  C   C3        1.0  0.5497367764123604  0.6804217317214124  0.8093695551068271  1.0000
  C   C4        1.0  0.45026322344257186  0.3195782678884859  0.19063044497623516  1.0000
  C   C5        1.0  0.545595809530348  0.5839506057509966  0.8529264609332691  1.0000
  C   C6        1.0  0.4544041903245842  0.4160493938589017  0.1470735391497931  1.0000
  C   C7        1.0  0.7229051617667498  0.511955637355826  0.8454273805596323  1.0000
  C   C8        1.0  0.2770948380881823  0.4880443622540724  0.1545726195234299  1.0000
  C   C9        1.0  0.9071504400387995  0.5459372701564209  0.7932763962129104  1.0000
  C   C10       1.0  0.09284955979189388  0.45406272959191346  0.2067236032082099  1.0000
  C   C11       1.0  0.911106342116173  0.6424433557529919  0.7505956237907521  1.0000
  C   C12       1.0  0.08889365760238199  0.3575566445753555  0.24940437629673198  1.0000
  C   C13       1.0  0.5115762027516912  0.7707845294212889  0.02731567078557862  1.0000
  C   C14       1.0  0.48842379710324085  0.22921547018860947  0.9726843292974836  1.0000
  C   C15       1.0  0.6387485694807984  0.8435529959647956  0.9841893546034133  1.0000
  C   C16       1.0  0.3612514303741338  0.15644700364510283  0.015810645479648857  1.0000
  C   C17       1.0  0.8581780969528079  0.8185301533380799  0.9540521022426771  1.0000
  C   C18       1.0  0.14182190290212415  0.1814698462718186  0.04594789784038505  1.0000
  C   C19       1.0  0.9336851117683934  0.7182513053408465  0.9708678168740503  1.0000
  C   C20       1.0  0.06631488792592276  0.281748695125937  0.029132182551491786  1.0000
  C   C21       1.0  0.7958972432360404  0.6500374301196102  0.015424718758763088  1.0000
  C   C22       1.0  0.2041027564582758  0.34996257034717326  0.984575280666779  1.0000
  C   C23       1.0  0.00496709403503828  0.8887480992216545  0.9078289296896059  1.0000
  C   C24       1.0  0.9950329056835165  0.11125190110669303  0.09217107039787818  1.0000
  C   C25       1.0  0.9623922723768836  0.9874415964196653  0.892021187673921  1.0000
  C   C26       1.0  0.03760772731743236  0.012558404047118126  0.107978811751621  1.0000
  C   C27       1.0  0.10918795852835833  0.057267289284373274  0.8449077416352663  1.0000
  C   C28       1.0  0.8908120413023352  0.9427327104639611  0.15509225778585395  1.0000
  C   C29       1.0  0.3249827888073214  0.02951545835999507  0.8126329971010532  1.0000
  C   C30       1.0  0.6750172126085832  0.9704845419677381  0.18736700298766135  1.0000
  C   C31       1.0  0.459878909214375  0.09854280285793218  0.7680396462477378  1.0000
  C   C32       1.0  0.5401210905041798  0.9014571974704153  0.2319603538397463  1.0000
  C   C33       1.0  0.3840725010279661  0.19858285559557803  0.7538496174840491  1.0000
  C   C34       1.0  0.6159274986905889  0.8014171447327695  0.24615038260343486  1.0000
  C   C35       1.0  0.17036632234022156  0.228092477337614  0.7846458518692029  1.0000
  C   C36       1.0  0.8296336773783333  0.7719075229907336  0.21535414821828125  1.0000
  C   C37       1.0  0.03670860265889219  0.1576218600854547  0.8290935440144815  1.0000
  C   C38       1.0  0.9632913988933898  0.8423781395238292  0.1709064560698111  1.0000
  C   C39       1.0  0.4554674650588119  0.36359245440841265  0.6914874912175074  1.0000
  C   C40       1.0  0.544532534659743  0.6364075459199349  0.3085125088699766  1.0000
  C   C41       1.0  0.6379614002845139  0.416619807014786  0.6379215396310525  1.0000
  C   C42       1.0  0.3620385995704184  0.5833801925951122  0.3620784604520098  1.0000
  C   C43       1.0  0.5729802730768122  0.5266058912561382  0.6123079138700014  1.0000
  C   C44       1.0  0.42701972833909246  0.47339410907159485  0.3876920862187132  1.0000
  C   C45       1.0  0.7580357408601122  0.5805280068477856  0.5593814648990572  1.0000
  C   C46       1.0  0.2419642588584429  0.4194719934805618  0.44061853518842703  1.0000
  C   C47       1.0  0.6145800644528778  0.11787038945079936  0.541033881319417  1.0000
  C   C48       1.0  0.38541993696302684  0.882129610876934  0.4589661187692974  1.0000
  C   C49       1.0  0.7595626061116242  0.19432518993621223  0.49009309093424824  1.0000
  C   C50       1.0  0.24043739360693067  0.8056748103921353  0.5099069091532359  1.0000
  C   C51       1.0  0.9651954778705166  0.18947953213181412  0.5524009161182054  1.0000
  C   C52       1.0  0.03480452184803833  0.8105204681965332  0.4475990839692789  1.0000
  C   C53       1.0  0.9989026660814266  0.08080106372287166  0.5918740080472217  1.0000
  C   C54       1.0  0.0010973337735055376  0.9191989358870267  0.40812599203584055  1.0000
  N   N1        1.0  0.5869191573447144  0.6752265678779005  0.04315950290418327  1.0000
  N   N2        1.0  0.4130808423738404  0.3247734324504471  0.9568404971833008  1.0000
  O   O1        1.0  0.7275743811578849  0.4182840232671301  0.8823427675177935  1.0000
  O   O2        1.0  0.2724256185606701  0.5817159770612175  0.11765723256969068  1.0000
  O   O3        1.0  0.5284160302150223  0.26059572983854623  0.708913791360158  1.0000
  O   O4        1.0  0.4715839695035327  0.7394042704898014  0.29108620872732605  1.0000
  O   O5        1.0  0.7731145091643632  0.045222175415158716  0.5941906215153178  1.0000
  O   O6        1.0  0.22688549069056899  0.9547778241947396  0.40580937856774446  1.0000
  F   F1        1.0  0.3705642373282614  0.7446159731933413  0.820548203910575  1.0000
  F   F2        1.0  0.6294357623902935  0.25538402713500613  0.17945179617690918  1.0000
  F   F3        1.0  0.365181201465092  0.5580168914291185  0.9051775892942351  1.0000
  F   F4        1.0  0.6348187983898402  0.44198310818077996  0.09482241078882711  1.0000
  F   F5        1.0  0.08306597243899297  0.48018194860325286  0.7817223310574127  1.0000
  F   F6        1.0  0.9169340289769117  0.5198180517244804  0.21827766903130183  1.0000
  F   F7        1.0  0.0932915681860779  0.667057635021568  0.6997903731355172  1.0000
  F   F8        1.0  0.9067084316688543  0.33294236458833043  0.30020962694754505  1.0000
  I   I1        1.0  0.7337836861807794  0.8564611663392097  0.6871229854563479  1.0000
  I   I2        1.0  0.2662163135377756  0.1435388339891379  0.31287701463113615  1.0000
