data_image0
_chemical_formula_structural       H96C100N8O8I8
_chemical_formula_sum              "H96 C100 N8 O8 I8"
_cell_length_a       6.76055766398335
_cell_length_b       21.90239678738713
_cell_length_c       16.332307255860535
_cell_angle_alpha    90.0
_cell_angle_beta     97.83535342371393
_cell_angle_gamma    90.0

_space_group_name_H-M_alt    "P 1"
_space_group_IT_number       1

loop_
  _space_group_symop_operation_xyz
  'x, y, z'

loop_
  _atom_site_type_symbol
  _atom_site_label
  _atom_site_symmetry_multiplicity
  _atom_site_fract_x
  _atom_site_fract_y
  _atom_site_fract_z
  _atom_site_occupancy
  H   H1        1.0  0.9477242829472176  0.22629201397968426  0.505930707698294  1.0000
  H   H2        1.0  0.052275716426702416  0.7262920138110468  0.9940692924710952  1.0000
  H   H3        1.0  0.05227571682138337  0.7737079861396118  0.4940692924494303  1.0000
  H   H4        1.0  0.9477242833418987  0.2737079863082493  0.005930707676629198  1.0000
  H   H5        1.0  0.7926464024432343  0.7526304910836439  0.3193441989396214  1.0000
  H   H6        1.0  0.20735359751317298  0.2526304912522814  0.1806558005683861  1.0000
  H   H7        1.0  0.207353597118492  0.2473695090356522  0.6806558005900509  1.0000
  H   H8        1.0  0.7926464020485531  0.7473695088670148  0.8193441989612862  1.0000
  H   H9        1.0  0.6234259373793316  0.777608898027447  0.23415064616900183  1.0000
  H   H10       1.0  0.3765740627839505  0.2776088981960844  0.26584935395705767  1.0000
  H   H11       1.0  0.37657406238926944  0.22239110163527814  0.7658493539787224  1.0000
  H   H12       1.0  0.6234259369846505  0.7223911019232117  0.7341506461906666  1.0000
  H   H13       1.0  0.6925096573839082  0.887359037399603  0.2789110356432532  1.0000
  H   H14       1.0  0.3074903427793739  0.38735903756824047  0.2210889644828063  1.0000
  H   H15       1.0  0.30749034238469286  0.11264096271969312  0.7210889645044711  1.0000
  H   H16       1.0  0.6925096569892272  0.6126409625510556  0.778911035664918  1.0000
  H   H17       1.0  0.8674294094866257  0.8605598511873426  0.3620441609982651  1.0000
  H   H18       1.0  0.13257059067665627  0.3605598513559801  0.13795583912779438  1.0000
  H   H19       1.0  0.13257059176068192  0.1394401484753824  0.63795583914807  1.0000
  H   H20       1.0  0.8674294090919448  0.639440148763316  0.8620441610199299  1.0000
  H   H21       1.0  0.5962730859718948  0.1766081898501417  0.6721383483950375  1.0000
  H   H22       1.0  0.40372691488073204  0.6766081896815042  0.8278616517729626  1.0000
  H   H23       1.0  0.4037269137967064  0.8233918102691544  0.3278616517526869  1.0000
  H   H24       1.0  0.5962730863665757  0.32339181043779186  0.17213834837337266  1.0000
  H   H25       1.0  0.42457433975362174  0.1966888410350054  0.5843878572317045  1.0000
  H   H26       1.0  0.5754256594134235  0.696688841322939  0.9156121423196326  1.0000
  H   H27       1.0  0.5754256598081045  0.8033111586277196  0.4156121422979678  1.0000
  H   H28       1.0  0.4245743401483027  0.30331115879635717  0.0843878572100397  1.0000
  H   H29       1.0  0.05799827662783599  0.8080968467429291  0.2594564638264132  1.0000
  H   H30       1.0  0.9420017235354461  0.3080968464549955  0.24054353629964625  1.0000
  H   H31       1.0  0.9420017246194716  0.19190315337636699  0.7405435363199219  1.0000
  H   H32       1.0  0.05799827623315502  0.6919031536643006  0.7594564638480781  1.0000
  H   H33       1.0  0.8873293411597744  0.8398622515410311  0.17725840875228857  1.0000
  H   H34       1.0  0.11267065900350766  0.33986225170966855  0.32274159137377084  1.0000
  H   H35       1.0  0.11267065860882668  0.160137748121694  0.8227415913954357  1.0000
  H   H36       1.0  0.8873293407650934  0.6601377484096276  0.6772584087739534  1.0000
  H   H37       1.0  0.22653205202221482  0.37166132131656554  0.49510640981432674  1.0000
  H   H38       1.0  0.7734679481410671  0.871661321604499  0.0048935903117327435  1.0000
  H   H39       1.0  0.7734679477463862  0.6283386783461595  0.5048935903333975  1.0000
  H   H40       1.0  0.2265320531062405  0.12833867851479702  0.9951064098346024  1.0000
  H   H41       1.0  0.8637564492869684  0.4754965879349504  0.642208281559568  1.0000
  H   H42       1.0  0.13624355156565823  0.975496588222884  0.8577917186084318  1.0000
  H   H43       1.0  0.13624355196033924  0.5245034121843457  0.3577917185867671  1.0000
  H   H44       1.0  0.8637564482029428  0.0245034118964121  0.14220828153929244  1.0000
  H   H45       1.0  0.1444798886386603  0.4715814515764775  0.5582186035937342  1.0000
  H   H46       1.0  0.8555201122139664  0.97158145140784  0.9417813965742656  1.0000
  H   H47       1.0  0.8555201111299409  0.5284185485428187  0.4417813965539901  1.0000
  H   H48       1.0  0.14447988903334125  0.02841854871145607  0.05821860357206938  1.0000
  H   H49       1.0  0.6673277914657098  0.38318815705288944  0.6627827044943045  1.0000
  H   H50       1.0  0.3326722079082103  0.8831881568842519  0.8372172956750845  1.0000
  H   H51       1.0  0.33267220830289135  0.6168118430664067  0.3372172956534197  1.0000
  H   H52       1.0  0.6673277918603907  0.11681184323504416  0.16278270447263982  1.0000
  H   H53       1.0  0.4626482089524727  0.3067406304988904  0.6205404437387341  1.0000
  H   H54       1.0  0.5373517904214473  0.806740630786824  0.879459556430655  1.0000
  H   H55       1.0  0.5373517908161283  0.6932593691638346  0.37945955640899026  1.0000
  H   H56       1.0  0.4626482093471537  0.19325936933247212  0.12054044371706925  1.0000
  H   H57       1.0  0.6312358314644624  0.287967765867163  0.7109898161332421  1.0000
  H   H58       1.0  0.36876416770258275  0.7879677661550966  0.789010183418095  1.0000
  H   H59       1.0  0.3687641680972638  0.712032233795562  0.2890101833964302  1.0000
  H   H60       1.0  0.6312358318591433  0.2120322339641995  0.21098981611157727  1.0000
  H   H61       1.0  0.47148589143636843  0.8379739837682632  0.06256992167835093  1.0000
  H   H62       1.0  0.5285141087269136  0.3379739839369006  0.43743007844770854  1.0000
  H   H63       1.0  0.5285141083322326  0.162026015894462  0.9374300784693733  1.0000
  H   H64       1.0  0.4714858910416874  0.6620260161823955  0.5625699217000157  1.0000
  H   H65       1.0  0.1938419086689667  0.8206640498975405  0.14377938745603913  1.0000
  H   H66       1.0  0.8061580912874404  0.3206640496096068  0.35622061205196837  1.0000
  H   H67       1.0  0.8061580908927595  0.1793359502217557  0.8562206120736332  1.0000
  H   H68       1.0  0.19384190827428568  0.6793359500531182  0.6437793874777039  1.0000
  H   H69       1.0  0.5479862176120883  0.22547520885220604  0.43841847317884275  1.0000
  H   H70       1.0  0.4520137825511937  0.7254752086835686  0.061581526947216754  1.0000
  H   H71       1.0  0.4520137821565127  0.7745247912670901  0.5615815269688815  1.0000
  H   H72       1.0  0.5479862172174074  0.2745247914357275  0.9384184732005075  1.0000
  H   H73       1.0  0.9930892875305176  0.10463843853471741  0.2855459242581732  1.0000
  H   H74       1.0  0.006910712632764431  0.6046384383660799  0.21445407586788626  1.0000
  H   H75       1.0  0.006910712238083402  0.8953615615845788  0.714454075889551  1.0000
  H   H76       1.0  0.9930892871358367  0.3953615612966452  0.785545924279838  1.0000
  H   H77       1.0  0.9191200580004099  0.19251004038188663  0.37265993801877123  1.0000
  H   H78       1.0  0.0808799421628723  0.6925100406698201  0.1273400621072883  1.0000
  H   H79       1.0  0.0808799417681913  0.8074899592808384  0.6273400621289531  1.0000
  H   H80       1.0  0.9191200590844356  0.30748995944947594  0.8726599380390468  1.0000
  H   H81       1.0  0.6218770991941944  0.13842951113669869  0.3471602552105398  1.0000
  H   H82       1.0  0.37812290076221267  0.6384295109680612  0.1528397442974677  1.0000
  H   H83       1.0  0.3781229003675316  0.8615704889825975  0.6528397443191324  1.0000
  H   H84       1.0  0.6218770987995135  0.36157048869466385  0.8471602552322045  1.0000
  H   H85       1.0  0.5472736305014057  0.019497265260298657  0.16415037775981872  1.0000
  H   H86       1.0  0.4527263694550015  0.5194972650916612  0.3358496217481888  1.0000
  H   H87       1.0  0.45272636906032054  0.9805027348589975  0.8358496217698537  1.0000
  H   H88       1.0  0.5472736301067246  0.4805027350276349  0.6641503777814834  1.0000
  H   H89       1.0  0.6488715297742526  0.9385879367247282  0.07057224442205133  1.0000
  H   H90       1.0  0.3511284703890295  0.4385879368933656  0.42942775570400815  1.0000
  H   H91       1.0  0.3511284699943485  0.06141206339456796  0.9294277557256729  1.0000
  H   H92       1.0  0.6488715293795716  0.5614120632259305  0.5705722444437161  1.0000
  H   H93       1.0  0.14468620203502291  0.007800323026673705  0.2972137124193362  1.0000
  H   H94       1.0  0.855313798128259  0.5078003228580362  0.20278628770672327  1.0000
  H   H95       1.0  0.8553137977335781  0.9921996770926225  0.7027862877283881  1.0000
  H   H96       1.0  0.14468620311904856  0.49219967726125985  0.7972137124396118  1.0000
  C   C1        1.0  0.9973474678520078  0.32200893529887364  0.5429510271393551  1.0000
  C   C2        1.0  0.002652532793744158  0.8220089351302362  0.957048972410593  1.0000
  C   C3        1.0  0.0026525317097184932  0.6779910648204225  0.4570489723903173  1.0000
  C   C4        1.0  0.9973474682466886  0.17799106498905992  0.04295102711769022  1.0000
  C   C5        1.0  0.045594949391159274  0.2661812698671092  0.501820274732049  1.0000
  C   C6        1.0  0.9544050514614675  0.7661812696984719  0.998179725435951  1.0000
  C   C7        1.0  0.9544050518561485  0.7338187302521869  0.4981797254142862  1.0000
  C   C8        1.0  0.04559494830713357  0.2338187299642533  0.0018202747117733327  1.0000
  C   C9        1.0  0.8376052338571534  0.3246975876217971  0.5907236217844304  1.0000
  C   C10       1.0  0.16239476551676665  0.8246975879097307  0.9092763783849588  1.0000
  C   C11       1.0  0.16239476591144766  0.675302412040928  0.409276378363294  1.0000
  C   C12       1.0  0.8376052342518344  0.1753024122095654  0.0907236217627655  1.0000
  C   C13       1.0  0.6856877796097774  0.7892822907835875  0.29812410531136513  1.0000
  C   C14       1.0  0.31431222055350455  0.2892822904956539  0.20187589481469434  1.0000
  C   C15       1.0  0.31431222015882354  0.21071770933570866  0.701875894836359  1.0000
  C   C16       1.0  0.6856877792150965  0.7107177091670711  0.7981241053330299  1.0000
  C   C17       1.0  0.7968435658986842  0.8499069499425637  0.2988544155640229  1.0000
  C   C18       1.0  0.2031564342645978  0.34990695011120115  0.2011455845620366  1.0000
  C   C19       1.0  0.20315643534862346  0.15009305017673247  0.7011455845823122  1.0000
  C   C20       1.0  0.7968435655040034  0.650093050008095  0.7988544155856877  1.0000
  C   C21       1.0  0.481867731354424  0.21034580163633343  0.6479993806561458  1.0000
  C   C22       1.0  0.5181322692913279  0.710345801467696  0.8520006188938021  1.0000
  C   C23       1.0  0.5181322682073023  0.7896541984829627  0.35200061887352646  1.0000
  C   C24       1.0  0.48186773174910497  0.28965419865160014  0.14799938063448104  1.0000
  C   C25       1.0  0.9555702720344448  0.846683102767963  0.24190103821660064  1.0000
  C   C26       1.0  0.04442972665013068  0.3466831029366005  0.258098961910848  1.0000
  C   C27       1.0  0.04442972773415635  0.15331689735133308  0.7580989619311236  1.0000
  C   C28       1.0  0.9555702731184705  0.6533168971826956  0.7419010382368763  1.0000
  C   C29       1.0  0.3190200102263083  0.9665305233713383  0.20729654360276714  1.0000
  C   C30       1.0  0.6809799897300989  0.4665305230834047  0.2927034559052404  1.0000
  C   C31       1.0  0.6809799893354179  0.03346947674795784  0.7927034559269052  1.0000
  C   C32       1.0  0.3190200098316273  0.5334694765793204  0.707296543624432  1.0000
  C   C33       1.0  0.10537901300804335  0.3755834391027554  0.5323910487574773  1.0000
  C   C34       1.0  0.8946209863658766  0.875583439390689  0.9676089514119116  1.0000
  C   C35       1.0  0.8946209867605576  0.6244165605599696  0.4676089513902469  1.0000
  C   C36       1.0  0.10537901340272438  0.12441656072860711  0.0323910487358126  1.0000
  C   C37       1.0  0.21691562205997533  0.9097859363718136  0.2015317085079305  1.0000
  C   C38       1.0  0.7830843781033067  0.40978593654045103  0.29846829161812893  1.0000
  C   C39       1.0  0.7830843775017509  0.09021406374748257  0.7984682910217418  1.0000
  C   C40       1.0  0.21691562166529438  0.5902140635788451  0.7015317085295953  1.0000
  C   C41       1.0  0.9006551662748954  0.43261683559018255  0.6138673567809604  1.0000
  C   C42       1.0  0.09934483289214982  0.9326168354215452  0.8861326427703767  1.0000
  C   C43       1.0  0.09934483328683082  0.5673831645291135  0.3861326427487119  1.0000
  C   C44       1.0  0.9006551666695763  0.06738316469775102  0.11386735675929557  1.0000
  C   C45       1.0  0.22959061973161152  0.2135272351879403  0.41349675163481814  1.0000
  C   C46       1.0  0.7704093804316705  0.7135272354758739  0.08650324849124137  1.0000
  C   C47       1.0  0.7704093800369896  0.7864727644747848  0.5865032485129061  1.0000
  C   C48       1.0  0.2295906191300556  0.2864727646434222  0.913496751038431  1.0000
  C   C49       1.0  0.05886642593584091  0.43058594278736306  0.5669618330144818  1.0000
  C   C50       1.0  0.9411335749167857  0.9305859426187257  0.9330381671535182  1.0000
  C   C51       1.0  0.9411335753114667  0.569414057331933  0.4330381671318533  1.0000
  C   C52       1.0  0.05886642485181526  0.06941405750057046  0.06696183299420617  1.0000
  C   C53       1.0  0.7898807107087411  0.3803620681731717  0.6259820904965329  1.0000
  C   C54       1.0  0.21011928866517893  0.8803620680045342  0.8740179096728561  1.0000
  C   C55       1.0  0.21011928905985996  0.6196379319461244  0.37401790965119136  1.0000
  C   C56       1.0  0.7898807111034221  0.11963793165819085  0.12598209047486814  1.0000
  C   C57       1.0  0.5746148511833606  0.2731750176969454  0.6475036472452231  1.0000
  C   C58       1.0  0.42538514946239114  0.773175017984879  0.8524963523047248  1.0000
  C   C59       1.0  0.42538514837836544  0.7268249819657796  0.3524963522844491  1.0000
  C   C60       1.0  0.5746148517849166  0.2268249821344171  0.14750364784161038  1.0000
  C   C61       1.0  0.3137008675450265  0.11446580957951334  0.31323112077185916  1.0000
  C   C62       1.0  0.6862991326182555  0.6144658098674469  0.18676887935420036  1.0000
  C   C63       1.0  0.6862991322235745  0.8855341900832118  0.6867688793758652  1.0000
  C   C64       1.0  0.3137008671503455  0.38553419025184915  0.8132311207935239  1.0000
  C   C65       1.0  0.42837950340100217  0.8741131523571465  0.10255317213859684  1.0000
  C   C66       1.0  0.5716204967622799  0.3741131525257839  0.39744682798746267  1.0000
  C   C67       1.0  0.5716204978463055  0.1258868477621497  0.8974468280077382  1.0000
  C   C68       1.0  0.42837950300632116  0.6258868475935122  0.6025531721602616  1.0000
  C   C69       1.0  0.2731063680715753  0.8639844745620409  0.1491137448369903  1.0000
  C   C70       1.0  0.7268936320917068  0.3639844747306783  0.3508862552890692  1.0000
  C   C71       1.0  0.7268936316970258  0.13601552510068424  0.850886255310734  1.0000
  C   C72       1.0  0.2731063676768943  0.6360155253886178  0.6491137448586551  1.0000
  C   C73       1.0  0.42799293192616195  0.1988522732136831  0.40407073487675194  1.0000
  C   C74       1.0  0.5720070682371201  0.6988522735016167  0.09592926524930755  1.0000
  C   C75       1.0  0.572007067842439  0.801147726449042  0.5959292652709723  1.0000
  C   C76       1.0  0.427992931531481  0.3011477266176794  0.9040707348984168  1.0000
  C   C77       1.0  0.11456850685330837  0.13013732550226673  0.320642101621331  1.0000
  C   C78       1.0  0.8854314933099736  0.6301373253336293  0.17935789850472844  1.0000
  C   C79       1.0  0.8854314943939993  0.8698626746170293  0.6793578985250041  1.0000
  C   C80       1.0  0.11456850645862744  0.36986267478566687  0.8206421016429959  1.0000
  C   C81       1.0  0.0734500538664651  0.17919479443729924  0.36945466814018263  1.0000
  C   C82       1.0  0.9265499462968171  0.6791947942686617  0.13054533198587684  1.0000
  C   C83       1.0  0.9265499459021358  0.8208052056819969  0.6305453320075416  1.0000
  C   C84       1.0  0.07345005347178411  0.3208052058506343  0.8694546681618475  1.0000
  C   C85       1.0  0.4688389894007979  0.1506761799649461  0.35409007961152356  1.0000
  C   C86       1.0  0.5311610107624841  0.6506761797963085  0.14590992051453588  1.0000
  C   C87       1.0  0.5311610103678032  0.84932382015435  0.6459099205362007  1.0000
  C   C88       1.0  0.4688389890061169  0.3493238198664165  0.8540900796331884  1.0000
  C   C89       1.0  0.47364969315401795  0.9752286595547586  0.1591272405729006  1.0000
  C   C90       1.0  0.526350307009264  0.475228659266825  0.3408727595531589  1.0000
  C   C91       1.0  0.5263503080932898  0.024771340564537562  0.8408727595734345  1.0000
  C   C92       1.0  0.47364969275933694  0.5247713403959001  0.6591272405945654  1.0000
  C   C93       1.0  0.5289612368309154  0.9300791368975183  0.10727166160958562  1.0000
  C   C94       1.0  0.4710387633323666  0.4300791370661558  0.39272833851647393  1.0000
  C   C95       1.0  0.47103876441639225  0.06992086322177776  0.8927283385367495  1.0000
  C   C96       1.0  0.5289612364362344  0.5699208630531403  0.6072716616312503  1.0000
  C   C97       1.0  0.2671391196763856  0.015907980454479085  0.26036818032525516  1.0000
  C   C98       1.0  0.7328608804868965  0.5159079802858416  0.23963181980080434  1.0000
  C   C99       1.0  0.7328608800922155  0.9840920196648171  0.7396318198224692  1.0000
  C   C100      1.0  0.2671391192817046  0.48409201983345446  0.7603681803469199  1.0000
  N   N1        1.0  0.19739021156284423  0.264162585317231  0.46148366033406757  1.0000
  N   N2        1.0  0.8026097886004377  0.7641625851485936  0.03851633979199187  1.0000
  N   N3        1.0  0.8026097882057568  0.7358374148020651  0.5385163398136568  1.0000
  N   N4        1.0  0.1973902109612883  0.2358374149707025  0.9614836597376804  1.0000
  N   N5        1.0  0.36653842716754326  0.06642800256626927  0.26484931065802364  1.0000
  N   N6        1.0  0.6334615729957388  0.5664280028542028  0.23515068946803583  1.0000
  N   N7        1.0  0.6334615726010578  0.9335719970964559  0.7351506894897007  1.0000
  N   N8        1.0  0.3665384282515689  0.4335719972650933  0.7648493106782993  1.0000
  O   O1        1.0  0.06659337745800725  0.9031163010155531  0.24868346124067003  1.0000
  O   O2        1.0  0.9334066227052749  0.4031163011841907  0.2513165388853894  1.0000
  O   O3        1.0  0.9334066223105938  0.09688369864717188  0.7513165389070542  1.0000
  O   O4        1.0  0.06659337706332626  0.5968836989351054  0.7486834612623349  1.0000
  O   O5        1.0  0.7377345032221154  0.27141177688020346  0.5992217497869065  1.0000
  O   O6        1.0  0.2622654976305114  0.771411777168137  0.9007782503810935  1.0000
  O   O7        1.0  0.26226549654648573  0.7285882227825217  0.4007782503608178  1.0000
  O   O8        1.0  0.7377345036167963  0.22858822295115908  0.09922174976524162  1.0000
  I   I1        1.0  0.24016493172461037  0.9072333764605532  0.4578230608607925  1.0000
  I   I2        1.0  0.7598350684386717  0.40723337662919074  0.04217693926526698  1.0000
  I   I3        1.0  0.7598350680439907  0.09276662365874284  0.5421769392869318  1.0000
  I   I4        1.0  0.24016493132992936  0.5927666234901054  0.9578230608824573  1.0000
  I   I5        1.0  0.24967662216661343  0.9910799726950597  0.5775258394734005  1.0000
  I   I6        1.0  0.7503233772073067  0.49107997240712614  0.9224741606959888  1.0000
  I   I7        1.0  0.7503233776019876  0.008920027424236381  0.42247416067432386  1.0000
  I   I8        1.0  0.2496766225612944  0.5089200277121699  0.07752583945173566  1.0000
