data_image0
_chemical_formula_structural       H42C68N6O4
_chemical_formula_sum              "H42 C68 N6 O4"
_cell_length_a       7.033953808672817
_cell_length_b       10.503692194253365
_cell_length_c       15.960987998519279
_cell_angle_alpha    86.94283535295223
_cell_angle_beta     78.44299302273308
_cell_angle_gamma    88.77468331909232

_space_group_name_H-M_alt    "P 1"
_space_group_IT_number       1

loop_
  _space_group_symop_operation_xyz
  'x, y, z'

loop_
  _atom_site_type_symbol
  _atom_site_label
  _atom_site_symmetry_multiplicity
  _atom_site_fract_x
  _atom_site_fract_y
  _atom_site_fract_z
  _atom_site_occupancy
  H   H1        1.0  0.10697053606864784  0.36730155461940334  0.24013632226148904  1.0000
  H   H2        1.0  0.8930294640600266  0.6326984453498616  0.7598636776970986  1.0000
  H   H3        1.0  0.2308632122302475  0.5155013258208754  0.1153162430885816  1.0000
  H   H4        1.0  0.769136787898427  0.48449867414838965  0.8846837568700061  1.0000
  H   H5        1.0  0.16950183003103603  0.7466318916987458  0.11957385761683746  1.0000
  H   H6        1.0  0.83049816864667  0.2533681082654447  0.8804261424734637  1.0000
  H   H7        1.0  0.004546916674532786  0.9401251085274297  0.21220931129918746  1.0000
  H   H8        1.0  0.9954530834621027  0.05987489144105015  0.7877906892852429  1.0000
  H   H9        1.0  0.7996109862785452  0.007034134256930254  0.34632699510952913  1.0000
  H   H10       1.0  0.20038901385012925  0.9929658657123347  0.6536730048490584  1.0000
  H   H11       1.0  0.6718785251811242  0.8503692871473651  0.4657678682945458  1.0000
  H   H12       1.0  0.32812147494755023  0.14963071282189985  0.5342321316640418  1.0000
  H   H13       1.0  0.5184889077756643  0.6195701566166948  0.6345992154199407  1.0000
  H   H14       1.0  0.48151109235301026  0.38042984335257024  0.3654007845386469  1.0000
  H   H15       1.0  0.7250386782119066  0.32518175199919336  0.5457450432039557  1.0000
  H   H16       1.0  0.2749613219167679  0.6748182479700717  0.45425495675463207  1.0000
  H   H17       1.0  0.17856350303816296  0.49484492801351915  0.9669532127969617  1.0000
  H   H18       1.0  0.8214364970905116  0.5051550719557457  0.03304678716162603  1.0000
  H   H19       1.0  0.04315473504506083  0.7142649536676078  0.9830392016408863  1.0000
  H   H20       1.0  0.9568452650836138  0.28573504630165714  0.016960798317701385  1.0000
  H   H21       1.0  0.10600763947948695  0.8752397744994955  0.8624362639893584  1.0000
  H   H22       1.0  0.8939923606491875  0.12476022546976967  0.13756373596922927  1.0000
  H   H23       1.0  0.30851343475724036  0.8227220550636749  0.7213826855239699  1.0000
  H   H24       1.0  0.6914865639204657  0.17727794490051568  0.2786173145663313  1.0000
  H   H25       1.0  0.5410347498737582  0.964026199576738  0.8068320370037809  1.0000
  H   H26       1.0  0.45896525025491625  0.03597380039252693  0.19316796295480673  1.0000
  H   H27       1.0  0.7130940237005218  0.8019652378309041  0.7120529078952277  1.0000
  H   H28       1.0  0.28690597497718423  0.19803476213328638  0.2879470921950735  1.0000
  H   H29       1.0  0.8647091038937426  0.8584566491090527  0.5621629470841227  1.0000
  H   H30       1.0  0.13529089623493187  0.14154335086021205  0.4378370528744649  1.0000
  H   H31       1.0  0.8443057599037946  0.08139279700955772  0.5007555686218712  1.0000
  H   H32       1.0  0.15569424022487974  0.9186072029597073  0.4992444313367164  1.0000
  H   H33       1.0  0.4879883096013581  0.3770214370457092  0.966291365962124  1.0000
  H   H34       1.0  0.5120116905273164  0.6229785629235558  0.033708633996463684  1.0000
  H   H35       1.0  0.3990449176355188  0.2647073428778904  0.10914675953450667  1.0000
  H   H36       1.0  0.600955082469569  0.7352926580448208  0.8908532403932344  1.0000
  H   H37       1.0  0.24367618964789795  0.05141297489760679  0.12332795289720877  1.0000
  H   H38       1.0  0.7563238104807765  0.9485870250716582  0.8766720470613789  1.0000
  H   H39       1.0  0.18468166107044784  0.9497525094744501  0.9936451675838684  1.0000
  H   H40       1.0  0.8153183390582266  0.05024749049481503  0.006354832374719381  1.0000
  H   H41       1.0  0.26849491431327627  0.0652922815268984  0.851096911615032  1.0000
  H   H42       1.0  0.7315050858153982  0.9347077184423667  0.14890308834355556  1.0000
  C   C1        1.0  0.7741540736839594  0.576388357720473  0.45377957634693455  1.0000
  C   C2        1.0  0.22584592644471513  0.42361164224879205  0.5462204236116531  1.0000
  C   C3        1.0  0.877409209034182  0.46270006396479135  0.40139308162174786  1.0000
  C   C4        1.0  0.1225907910944925  0.5372999360044736  0.5986069183368399  1.0000
  C   C5        1.0  0.9706954249259129  0.5188451916786244  0.3178199836972239  1.0000
  C   C6        1.0  0.029304575202761553  0.48115480829064067  0.6821800162613638  1.0000
  C   C7        1.0  0.07794703952205574  0.4693092968796836  0.24419996228456797  1.0000
  C   C8        1.0  0.9220529606066187  0.5306907030895813  0.7558000376740197  1.0000
  C   C9        1.0  0.14696137371030674  0.554313691019409  0.17341771352150587  1.0000
  C   C10       1.0  0.8530386264183676  0.44568630894985595  0.8265822864370818  1.0000
  C   C11       1.0  0.11103325308862447  0.6848531529560452  0.17554108389547826  1.0000
  C   C12       1.0  0.8889667470400501  0.3151468470132198  0.8244589160631093  1.0000
  C   C13       1.0  0.9994355207524664  0.7383577366099786  0.24990307544751708  1.0000
  C   C14       1.0  0.0005644793762080914  0.26164226335928636  0.7500969245110706  1.0000
  C   C15       1.0  0.9500547797831163  0.8686478306563926  0.26277030055649325  1.0000
  C   C16       1.0  0.04994522035351923  0.13135216931208718  0.7372297000279371  1.0000
  C   C17       1.0  0.8352863036475793  0.9063774440233461  0.33899561302623993  1.0000
  C   C18       1.0  0.16471369648109505  0.09362255594591905  0.6610043869323476  1.0000
  C   C19       1.0  0.7644714414406879  0.8184592430369547  0.4074467326361764  1.0000
  C   C20       1.0  0.23552855868798647  0.18154075693231037  0.5925532673224112  1.0000
  C   C21       1.0  0.8151193221263681  0.6911440182101198  0.3978316543764357  1.0000
  C   C22       1.0  0.18488067800230643  0.30885598175914514  0.602168345582152  1.0000
  C   C23       1.0  0.9307078126200911  0.6521502375069577  0.3196058995836624  1.0000
  C   C24       1.0  0.06929218750858339  0.3478497624623072  0.6803941003749253  1.0000
  C   C25       1.0  0.5000869002108994  0.4485657255704207  0.7126875902748531  1.0000
  C   C26       1.0  0.49991309991777505  0.5514342743988442  0.2873124096837345  1.0000
  C   C27       1.0  0.41730926800162393  0.42087033317767336  0.799653153172595  1.0000
  C   C28       1.0  0.5826907321270505  0.5791296667915916  0.20034684678599268  1.0000
  C   C29       1.0  0.32567161994758026  0.5336647705335166  0.8351793916242586  1.0000
  C   C30       1.0  0.6743283801810942  0.4663352294357484  0.16482060833432907  1.0000
  C   C31       1.0  0.21166137650149255  0.5660713469547475  0.9140995717485272  1.0000
  C   C32       1.0  0.7883386236271819  0.4339286530145174  0.08590042821006055  1.0000
  C   C33       1.0  0.13537162613822926  0.6891058205399844  0.9227253100981596  1.0000
  C   C34       1.0  0.8646283739904452  0.31089417942928066  0.07727468986042811  1.0000
  C   C35       1.0  0.17074942416943276  0.780654934044208  0.8540038295514654  1.0000
  C   C36       1.0  0.8292505759356549  0.21934506687850322  0.1459961703762756  1.0000
  C   C37       1.0  0.2829517873424948  0.7519601447801414  0.7747303679468514  1.0000
  C   C38       1.0  0.7170482127861796  0.24803985518912358  0.22526963201173636  1.0000
  C   C39       1.0  0.3605722348552266  0.629063104820677  0.765336238836563  1.0000
  C   C40       1.0  0.6394277652734477  0.370936895148588  0.23466376112202464  1.0000
  C   C41       1.0  0.5706313131756423  0.33280990280132056  0.6768997898572924  1.0000
  C   C42       1.0  0.42936868695303204  0.6671900971679444  0.32310021010129536  1.0000
  C   C43       1.0  0.5271496332843655  0.2365720277258544  0.7431543878673406  1.0000
  C   C44       1.0  0.4728503668522701  0.7634279722426256  0.2568456127170898  1.0000
  C   C45       1.0  0.6020580241351791  0.11861507538743123  0.7098285925402863  1.0000
  C   C46       1.0  0.3979419759934954  0.8813849245818338  0.2901714074183013  1.0000
  C   C47       1.0  0.6101641222835498  0.9916384969571092  0.7413758930356593  1.0000
  C   C48       1.0  0.38983587784512475  0.008361503012155998  0.25862410692292837  1.0000
  C   C49       1.0  0.7059123785408683  0.9004573883546607  0.6876398794497793  1.0000
  C   C50       1.0  0.2940876201447987  0.0995426116087448  0.31236012126636464  1.0000
  C   C51       1.0  0.7901075045374646  0.9325587544033733  0.601838404415165  1.0000
  C   C52       1.0  0.20989249559120982  0.0674412455658917  0.3981615955434226  1.0000
  C   C53       1.0  0.7795223010446256  0.056774879423019044  0.5673635222425054  1.0000
  C   C54       1.0  0.22047769908404882  0.9432251205462461  0.4326364777160822  1.0000
  C   C55       1.0  0.688684238394266  0.1498389781733877  0.6212987797771852  1.0000
  C   C56       1.0  0.31131576173440834  0.8501610217958773  0.3787012201814025  1.0000
  C   C57       1.0  0.38137827446518613  0.22817922990146675  0.9001965430954267  1.0000
  C   C58       1.0  0.6186217256634883  0.7718207700677984  0.09980345686316086  1.0000
  C   C59       1.0  0.417256531325766  0.28480397554364917  0.9731150151818426  1.0000
  C   C60       1.0  0.5827434688029084  0.7151960244256159  0.026884984776745096  1.0000
  C   C61       1.0  0.3670224216804035  0.2211095490477721  0.053108711001989266  1.0000
  C   C62       1.0  0.632977578448271  0.7788904509214929  0.9468912889565985  1.0000
  C   C63       1.0  0.28203954420860716  0.10095866737590944  0.06080993209880354  1.0000
  C   C64       1.0  0.7179604559200674  0.8990413325933556  0.9391900678597841  1.0000
  C   C65       1.0  0.24869951700606574  0.044100703508111364  0.9881593165732091  1.0000
  C   C66       1.0  0.751300483099022  0.9558992974145998  0.011840683354531926  1.0000
  C   C67       1.0  0.29679369888657997  0.10753336387913798  0.908070453619184  1.0000
  C   C68       1.0  0.7032063012420944  0.8924666360901269  0.09192954633940364  1.0000
  N   N1        1.0  0.4335006027401383  0.29071803205930663  0.818930167886175  1.0000
  N   N2        1.0  0.5664993973885359  0.7092819679099583  0.18106983207241273  1.0000
  N   N3        1.0  0.46580806830517063  0.5753106540545819  0.6926568860485691  1.0000
  N   N4        1.0  0.5341919318235039  0.424689345914683  0.3073431139100185  1.0000
  N   N5        1.0  0.6675572662560098  0.27902616226508875  0.6032613647653682  1.0000
  N   N6        1.0  0.33244273387266454  0.7209738377041762  0.3967386351932194  1.0000
  O   O1        1.0  0.6824096044838182  0.5614070668307714  0.5276829309181288  1.0000
  O   O2        1.0  0.3175903956212694  0.4385929340919399  0.4723170690096122  1.0000
  O   O3        1.0  0.874704842514495  0.3520624490939636  0.43151768210974656  1.0000
  O   O4        1.0  0.12529515761417936  0.6479375508753014  0.5684823178488411  1.0000
