data_image0
_chemical_formula_structural       H84C94N4O10
_chemical_formula_sum              "H84 C94 N4 O10"
_cell_length_a       10.528852706757094
_cell_length_b       11.994256217068688
_cell_length_c       15.683822198593326
_cell_angle_alpha    89.25504501814531
_cell_angle_beta     110.9156548648241
_cell_angle_gamma    100.34645270405048

_space_group_name_H-M_alt    "P 1"
_space_group_IT_number       1

loop_
  _space_group_symop_operation_xyz
  'x, y, z'

loop_
  _atom_site_type_symbol
  _atom_site_label
  _atom_site_symmetry_multiplicity
  _atom_site_fract_x
  _atom_site_fract_y
  _atom_site_fract_z
  _atom_site_occupancy
  H   H1        1.0  0.3890502532633464  0.23922221067693056  0.21880265565295998  1.0000
  H   H2        1.0  0.6109497468000125  0.7607777891014688  0.7811973443357618  1.0000
  H   H3        1.0  0.6274804428768354  0.6293419685096061  0.29800597806496243  1.0000
  H   H4        1.0  0.3725195571865237  0.37065803126879326  0.7019940219237595  1.0000
  H   H5        1.0  0.723884073881573  0.557178411846064  0.05747755283801192  1.0000
  H   H6        1.0  0.27611592618178593  0.44282158793233534  0.9425224471507099  1.0000
  H   H7        1.0  0.06125865865007034  0.34563764705425404  0.18961304047563565  1.0000
  H   H8        1.0  0.9387413414132886  0.6543623527241454  0.8103869595130863  1.0000
  H   H9        1.0  0.5781417625210516  0.7914104867915294  0.07822092282988057  1.0000
  H   H10       1.0  0.42185823774518333  0.20858951383564975  0.9217790772027623  1.0000
  H   H11       1.0  0.7304119141963203  0.7313958828917014  0.12846860618841405  1.0000
  H   H12       1.0  0.2695880858670387  0.26860411688669794  0.871531393800308  1.0000
  H   H13       1.0  0.6158363234816455  0.6910133024846714  0.011991159613552096  1.0000
  H   H14       1.0  0.38416367658171346  0.308986697293728  0.9880088403751698  1.0000
  H   H15       1.0  0.9102026587088268  0.38448594945781267  0.9850217742873152  1.0000
  H   H16       1.0  0.08979734135453213  0.6155140503205866  0.014978225701406743  1.0000
  H   H17       1.0  0.7620175250428722  0.4513620351040944  0.9516070583130881  1.0000
  H   H18       1.0  0.23798247502048683  0.548637964674305  0.04839294167563381  1.0000
  H   H19       1.0  0.9122460021705964  0.5068147073822052  0.05002960538706541  1.0000
  H   H20       1.0  0.0877539978927625  0.49318529239619413  0.9499703946016564  1.0000
  H   H21       1.0  0.6675138822478788  0.1377822038904729  0.9947988289649595  1.0000
  H   H22       1.0  0.33248611700341507  0.8622177967441514  0.005201170832773917  1.0000
  H   H23       1.0  0.8211195276836477  0.017784117022134144  0.9721969258217735  1.0000
  H   H24       1.0  0.17888047237971139  0.9822158827562654  0.02780307416694838  1.0000
  H   H25       1.0  0.9731422612086517  0.9273892306170722  0.10672216174252533  1.0000
  H   H26       1.0  0.026857737839766277  0.0726107691687726  0.893277838011287  1.0000
  H   H27       1.0  0.959686718107369  0.9543117713917956  0.25914664265252374  1.0000
  H   H28       1.0  0.040313280941048885  0.045688228394049395  0.7408533571012886  1.0000
  H   H29       1.0  0.8012368083775019  0.0727996232837036  0.2805409350987835  1.0000
  H   H30       1.0  0.19876319168585713  0.9272003764946958  0.7194590648899384  1.0000
  H   H31       1.0  0.38163850952974016  0.10611963058919997  0.30352367999997554  1.0000
  H   H32       1.0  0.6183614905458041  0.8938803691841222  0.6964763206292505  1.0000
  H   H33       1.0  0.2616643426932628  0.9237990042404216  0.33050540821546387  1.0000
  H   H34       1.0  0.738335657572972  0.07620099638675712  0.669494591817179  1.0000
  H   H35       1.0  0.2779914215879945  0.7429922624346249  0.25863583922631994  1.0000
  H   H36       1.0  0.7220085784753645  0.2570077373437744  0.7413641607624019  1.0000
  H   H37       1.0  0.41925874364282817  0.7521668267594969  0.16090236521438878  1.0000
  H   H38       1.0  0.5807412566234066  0.24783317386768183  0.839097634818254  1.0000
  H   H39       1.0  0.5373265848160819  0.9382405349815577  0.13044716026172307  1.0000
  H   H40       1.0  0.46267341524727723  0.06175946479684171  0.8695528397269987  1.0000
  H   H41       1.0  0.10662090517448118  0.18052925161448946  0.018617785228905396  1.0000
  H   H42       1.0  0.8933790948888778  0.8194707481639097  0.9813822147598164  1.0000
  H   H43       1.0  0.13256002176762136  0.17739659946239503  0.13788777813434458  1.0000
  H   H44       1.0  0.8674399782957375  0.8226034003160042  0.8621122218543772  1.0000
  H   H45       1.0  0.008084601646443928  0.2528219494646582  0.06422405562398091  1.0000
  H   H46       1.0  0.9919153984291003  0.7471780503086641  0.9357759450052451  1.0000
  H   H47       1.0  0.9444857299111983  0.4143908984365842  0.3658620465769768  1.0000
  H   H48       1.0  0.05551427035503648  0.5856091021905947  0.6341379534556661  1.0000
  H   H49       1.0  0.9227932161516336  0.42205789343478856  0.24737281627933702  1.0000
  H   H50       1.0  0.07720678391172539  0.5779421063436109  0.752627183709385  1.0000
  H   H51       1.0  0.9972400704614499  0.3099192236829949  0.3121628246410685  1.0000
  H   H52       1.0  0.002759929601909052  0.6900807760954044  0.6878371753476533  1.0000
  H   H53       1.0  0.4046313260586404  0.8334674971562663  0.45127345237812416  1.0000
  H   H54       1.0  0.5953686740047185  0.166532502622133  0.5487265476105978  1.0000
  H   H55       1.0  0.33231375675399033  0.8950524904775045  0.5744348502930477  1.0000
  H   H56       1.0  0.6676862435122445  0.1049475101496745  0.4255651497395951  1.0000
  H   H57       1.0  0.25846156819570604  0.7512880775615114  0.6724586570396063  1.0000
  H   H58       1.0  0.741538431867653  0.2487119222168881  0.3275413429491156  1.0000
  H   H59       1.0  0.2605460208381929  0.54742033796285  0.6465877214499139  1.0000
  H   H60       1.0  0.739453979225166  0.4525796618155495  0.353412278538808  1.0000
  H   H61       1.0  0.3224744124041759  0.4862368733563666  0.518414151646784  1.0000
  H   H62       1.0  0.6775255876591831  0.5137631264220328  0.48158584834193796  1.0000
  H   H63       1.0  0.6718407237514064  0.8447806850592581  0.33418457913359395  1.0000
  H   H64       1.0  0.3281592763119527  0.15521931471914138  0.6658154208551279  1.0000
  H   H65       1.0  0.8597405118374802  0.9973997302783435  0.43035725582699147  1.0000
  H   H66       1.0  0.14025948823806403  0.002600269494978773  0.5696427448022344  1.0000
  H   H67       1.0  0.9425718263996338  0.9945640591164263  0.5993490651071985  1.0000
  H   H68       1.0  0.057428173663725136  0.005435940661972929  0.40065093488152337  1.0000
  H   H69       1.0  0.8397983316656653  0.835881678935581  0.6733627233093595  1.0000
  H   H70       1.0  0.16020166839769373  0.16411832084281844  0.32663727667936243  1.0000
  H   H71       1.0  0.6511943973896434  0.683936551506294  0.5776833598624852  1.0000
  H   H72       1.0  0.3488056018616505  0.31606344912833034  0.4223166399352482  1.0000
  H   H73       1.0  0.04280245760046757  0.6171168053232355  0.46120340091791073  1.0000
  H   H74       1.0  0.9571975426657673  0.3828831953039434  0.5387965991147322  1.0000
  H   H75       1.0  0.02279425905053461  0.7564811643511071  0.47459306579434923  1.0000
  H   H76       1.0  0.9772057412157003  0.24351883627607168  0.5254069342382937  1.0000
  H   H77       1.0  0.8791648053398646  0.6434992092704858  0.4612362935153689  1.0000
  H   H78       1.0  0.12083519473567977  0.3565007905028365  0.5387637071138571  1.0000
  H   H79       1.0  0.11798534179115554  0.6830738911512605  0.326536863523041  1.0000
  H   H80       1.0  0.8820146582722034  0.31692610862713894  0.6734631364656808  1.0000
  H   H81       1.0  0.07011437076749025  0.8169915086783812  0.32001746981725226  1.0000
  H   H82       1.0  0.9298856294987445  0.18300849194879754  0.6799825302153906  1.0000
  H   H83       1.0  0.986098540929255  0.7171749807708553  0.2239402441292942  1.0000
  H   H84       1.0  0.013901459134104116  0.2828250190075442  0.7760597558594277  1.0000
  C   C1        1.0  0.525832089547803  0.3337733491720657  0.16309460974568318  1.0000
  C   C2        1.0  0.474167910515556  0.6662266506063337  0.8369053902430386  1.0000
  C   C3        1.0  0.4931853439727807  0.443021059426141  0.15857189644924297  1.0000
  C   C4        1.0  0.5068146562934542  0.556978941201038  0.8414281035834  1.0000
  C   C5        1.0  0.5701856704990709  0.5229624825604727  0.12100611218995025  1.0000
  C   C6        1.0  0.42981432956428806  0.4770375172179267  0.8789938877987716  1.0000
  C   C7        1.0  0.6712812836222287  0.4938335003935996  0.08975681950360812  1.0000
  C   C8        1.0  0.3287187164411303  0.5061664993847996  0.9102431804851137  1.0000
  C   C9        1.0  0.7000736026598621  0.3845220334024412  0.09583228000947724  1.0000
  C   C10       1.0  0.29992639740349697  0.6154779663759582  0.9041677199792447  1.0000
  C   C11       1.0  0.6274495436129768  0.30045479698838023  0.13403498272555764  1.0000
  C   C12       1.0  0.37255045645038226  0.6995452027900192  0.8659650172631642  1.0000
  C   C13       1.0  0.6271781182545896  0.1819823408951148  0.15152189171384772  1.0000
  C   C14       1.0  0.3728218820116453  0.8180176597320641  0.8484781083187951  1.0000
  C   C15       1.0  0.5243578607834127  0.14687793892995285  0.18838121220963033  1.0000
  C   C16       1.0  0.4756421392799463  0.8531220608484466  0.8116187877790916  1.0000
  C   C17       1.0  0.4220881419295334  0.5385167958187292  0.2735071730064371  1.0000
  C   C18       1.0  0.5779118583367014  0.4614832048084496  0.7264928270262058  1.0000
  C   C19       1.0  0.38915854330739114  0.46346240630427316  0.19681634692623068  1.0000
  C   C20       1.0  0.6108414567559679  0.5365375934741262  0.8031836530624912  1.0000
  C   C21       1.0  0.25611605886926664  0.3953409227564098  0.16906233302301865  1.0000
  C   C22       1.0  0.7438839413969682  0.604659077870769  0.8309376670096242  1.0000
  C   C23       1.0  0.16432465291519727  0.3977208876629302  0.2160909125037485  1.0000
  C   C24       1.0  0.8356753471481617  0.6022791121154691  0.7839090874849732  1.0000
  C   C25       1.0  0.20433470002348406  0.46794493243102286  0.29495676705794854  1.0000
  C   C26       1.0  0.7956653002427508  0.532055068196156  0.7050432329746944  1.0000
  C   C27       1.0  0.3360555848944845  0.5394516471212801  0.3262107837860888  1.0000
  C   C28       1.0  0.6639444153717503  0.4605483535058988  0.6737892162465542  1.0000
  C   C29       1.0  0.41050274519185365  0.6201764487120975  0.40261755160743556  1.0000
  C   C30       1.0  0.5894972548715053  0.37982355106630167  0.5973824483812864  1.0000
  C   C31       1.0  0.535427636069682  0.6662210723230721  0.39270783703331  1.0000
  C   C32       1.0  0.46457236399367696  0.33377892745532717  0.6072921629554119  1.0000
  C   C33       1.0  0.6223120535598564  0.7150043377762092  0.08095386636951  1.0000
  C   C34       1.0  0.3776879465035026  0.28499566200219023  0.919046133619212  1.0000
  C   C35       1.0  0.8471919800404284  0.4291519676215548  0.009960922750212877  1.0000
  C   C36       1.0  0.15280802002293067  0.5708480321568448  0.9900390772385091  1.0000
  C   C37       1.0  0.7218546494209399  0.11280765162993209  0.13881467654707272  1.0000
  C   C38       1.0  0.27814535064241896  0.8871923481484671  0.8611853234416492  1.0000
  C   C39       1.0  0.7306530770703126  0.09693640455162071  0.05271517679296199  1.0000
  C   C40       1.0  0.26934692218098133  0.9030635960830038  0.9472848230047713  1.0000
  C   C41       1.0  0.8186639395486558  0.029817436445762128  0.0404252036837539  1.0000
  C   C42       1.0  0.18133606051470325  0.9701825633326373  0.959574796304968  1.0000
  C   C43       1.0  0.9019502057048155  0.9784788225910148  0.11481957833094662  1.0000
  C   C44       1.0  0.09804979435854347  0.02152117718738475  0.8851804216577752  1.0000
  C   C45       1.0  0.8949392973868686  0.9941584086345296  0.20101703691316175  1.0000
  C   C46       1.0  0.1050607026764903  0.005841591143869652  0.7989829630755603  1.0000
  C   C47       1.0  0.8059650657944539  0.06047478172611016  0.2130130760250012  1.0000
  C   C48       1.0  0.19403493447178094  0.9395252189010688  0.7869869240076417  1.0000
  C   C49       1.0  0.4658926663614002  0.036726690220064646  0.21203352131045258  1.0000
  C   C50       1.0  0.5341073339048347  0.9632733104071142  0.7879664787221903  1.0000
  C   C51       1.0  0.3875422489990626  0.029828402893652343  0.26908819911109494  1.0000
  C   C52       1.0  0.6124577510642965  0.9701715968847471  0.730911800877627  1.0000
  C   C53       1.0  0.320041390272714  0.9254948702222349  0.28526775123886927  1.0000
  C   C54       1.0  0.6799586100057062  0.07450513039986684  0.7147322494342777  1.0000
  C   C55       1.0  0.329346588208475  0.8250730442622172  0.24568759094475925  1.0000
  C   C56       1.0  0.670653411854884  0.17492695551618226  0.7543124090439627  1.0000
  C   C57       1.0  0.40946918043659897  0.8302328095958526  0.19083260044672148  1.0000
  C   C58       1.0  0.5905308198296358  0.16976719103132626  0.8091673995859213  1.0000
  C   C59       1.0  0.47706855470118287  0.9345485429233099  0.17450491963584866  1.0000
  C   C60       1.0  0.5229314453621762  0.06545145685508953  0.8254950803528733  1.0000
  C   C61       1.0  0.10962412999879369  0.2296368542296545  0.07784049351655796  1.0000
  C   C62       1.0  0.8903758700645653  0.770363145548745  0.9221595064721639  1.0000
  C   C63       1.0  0.989214160437728  0.3999900220176177  0.31483548503967573  1.0000
  C   C64       1.0  0.010785838610689952  0.6000099777682272  0.6851645147141366  1.0000
  C   C65       1.0  0.36584537889141977  0.6553799743605822  0.47519608746623576  1.0000
  C   C66       1.0  0.6341546213748152  0.3446200262665967  0.5248039125664071  1.0000
  C   C67       1.0  0.3696565791956971  0.7707787893954766  0.49290638908720946  1.0000
  C   C68       1.0  0.6303434208676618  0.22922121038292276  0.5070936109015125  1.0000
  C   C69       1.0  0.32951691748676176  0.8051258101370538  0.5625389958421999  1.0000
  C   C70       1.0  0.6704830827794731  0.1948741904901251  0.437461004190443  1.0000
  C   C71       1.0  0.2877820801446207  0.7247338819653835  0.617045837160874  1.0000
  C   C72       1.0  0.7122179199187382  0.27526611781301585  0.3829541628278478  1.0000
  C   C73       1.0  0.28712526531692567  0.6101300808102623  0.6017771378885557  1.0000
  C   C74       1.0  0.7128747347464333  0.38986991896813705  0.39822286210016616  1.0000
  C   C75       1.0  0.3236490172266809  0.5755862900558139  0.5306474476226211  1.0000
  C   C76       1.0  0.676350983039554  0.4244137105713651  0.4693525524100218  1.0000
  C   C77       1.0  0.6481302737216499  0.7543266937583736  0.4493693617704649  1.0000
  C   C78       1.0  0.35186972634170915  0.2456733060200258  0.5506306382182571  1.0000
  C   C79       1.0  0.7095059013264547  0.842571675281769  0.4085219999294236  1.0000
  C   C80       1.0  0.29049409873690435  0.15742832449663044  0.5914780000592982  1.0000
  C   C81       1.0  0.8143696335993044  0.9283442890089124  0.46251644483095367  1.0000
  C   C82       1.0  0.18563036667911587  0.07165571161318932  0.5374835558421933  1.0000
  C   C83       1.0  0.8605419677662215  0.9270742765242941  0.5577617747495792  1.0000
  C   C84       1.0  0.13945803229713744  0.07292572325410529  0.4422382252391426  1.0000
  C   C85       1.0  0.8020337255253078  0.8387197040182819  0.5990184086657415  1.0000
  C   C86       1.0  0.19796627372598613  0.1612802966163426  0.4009815911319919  1.0000
  C   C87       1.0  0.6963619588086403  0.7531240128580134  0.545429724990625  1.0000
  C   C88       1.0  0.30363804044265363  0.24687598777661102  0.4545702748071083  1.0000
  C   C89       1.0  0.9204556149090302  0.683070742908371  0.33798970670205214  1.0000
  C   C90       1.0  0.07954438535720475  0.31692925771880803  0.6620102933305907  1.0000
  C   C91       1.0  0.9666689123261586  0.6736963696688052  0.4395376878349767  1.0000
  C   C92       1.0  0.033331087737200386  0.3263036301095943  0.5604623121537451  1.0000
  C   C93       1.0  0.02974926011011876  0.7265424682408081  0.29874512937395203  1.0000
  C   C94       1.0  0.9702507399532403  0.2734575315375913  0.7012548706147699  1.0000
  N   N1        1.0  0.46694641700684036  0.23993670176974033  0.1953139003616721  1.0000
  N   N2        1.0  0.533053583068704  0.7600632980035819  0.8046861002675538  1.0000
  N   N3        1.0  0.5404925479710271  0.6168938572502745  0.31499473477825374  1.0000
  N   N4        1.0  0.4595074520923319  0.38310614252812486  0.6850052652104681  1.0000
  O   O1        1.0  0.5403108530155747  0.6297831210419096  0.11434922800453336  1.0000
  O   O2        1.0  0.45968914725066007  0.3702168795852692  0.8856507720281095  1.0000
  O   O3        1.0  0.7951414369340188  0.3520671242543576  0.06513097973502696  1.0000
  O   O4        1.0  0.20485856211439918  0.6479328755314873  0.9348690200187855  1.0000
  O   O5        1.0  0.21726740642405554  0.3265311197445321  0.0906347796936795  1.0000
  O   O6        1.0  0.7827325936393035  0.6734688800338674  0.9093652202950423  1.0000
  O   O7        1.0  0.12264470382795162  0.47201554286712916  0.3452110229615034  1.0000
  O   O8        1.0  0.8773552962475928  0.527984456906193  0.6547889776677226  1.0000
  O   O9        1.0  0.7979429809444172  0.6571089181413691  0.2871535609557606  1.0000
  O   O10       1.0  0.20205701911894186  0.3428910816370303  0.7128464390329613  1.0000
