data_image0
_chemical_formula_structural       H32C60N4F8I4
_chemical_formula_sum              "H32 C60 N4 F8 I4"
_cell_length_a       7.943574313717851
_cell_length_b       12.963507901667164
_cell_length_c       14.266081383999698
_cell_angle_alpha    108.5854950236413
_cell_angle_beta     99.26551376734156
_cell_angle_gamma    107.60851265539236

_space_group_name_H-M_alt    "P 1"
_space_group_IT_number       1

loop_
  _space_group_symop_operation_xyz
  'x, y, z'

loop_
  _atom_site_type_symbol
  _atom_site_label
  _atom_site_symmetry_multiplicity
  _atom_site_fract_x
  _atom_site_fract_y
  _atom_site_fract_z
  _atom_site_occupancy
  H   H1        1.0  0.3489037571232789  0.3464121382805953  0.574011650572482  1.0000
  H   H2        1.0  0.6510962419135791  0.6535878613454528  0.42598834895706866  1.0000
  H   H3        1.0  0.09084050442037286  0.9392644484404912  0.4018455154583667  1.0000
  H   H4        1.0  0.9091594950199821  0.060735551527716695  0.5981544848426644  1.0000
  H   H5        1.0  0.12384389716264158  0.4615627473101616  0.9362977998054207  1.0000
  H   H6        1.0  0.8761561022777133  0.5384372526580463  0.06370220049561036  1.0000
  H   H7        1.0  0.7645934751736208  0.14820851873490737  0.8188752222007314  1.0000
  H   H8        1.0  0.23540652426673417  0.8517914812333004  0.18112477810029975  1.0000
  H   H9        1.0  0.951531025787859  0.13397644190187702  0.27597938680443246  1.0000
  H   H10       1.0  0.048468974908144974  0.8660235580640218  0.7240206134895545  1.0000
  H   H11       1.0  0.8408708911532476  0.7857474516931654  0.27477185370702173  1.0000
  H   H12       1.0  0.15912910954275641  0.21425254827273355  0.7252281465869654  1.0000
  H   H13       1.0  0.5984133846978614  0.07282285643368828  0.6665413816091101  1.0000
  H   H14       1.0  0.4015866155946458  0.9271771431900507  0.3334586179133967  1.0000
  H   H15       1.0  0.3345493279217773  0.9963205040384094  0.5169059256899821  1.0000
  H   H16       1.0  0.6654506715139475  0.003679496397468968  0.483094073840727  1.0000
  H   H17       1.0  0.6194939319041424  0.4253474175311749  0.7253415864158016  1.0000
  H   H18       1.0  0.38050606793507946  0.5746525832468633  0.27465841388638784  1.0000
  H   H19       1.0  0.2049349312549433  0.19128729834694497  0.1058342005811069  1.0000
  H   H20       1.0  0.7950650698399278  0.8087127024287841  0.8941657997140385  1.0000
  H   H21       1.0  0.8575980701556404  0.4007512794854774  0.829719225261328  1.0000
  H   H22       1.0  0.1424019292847145  0.5992487204827305  0.170280775039703  1.0000
  H   H23       1.0  0.1306037801784573  0.1909413432686499  0.4256675298498686  1.0000
  H   H24       1.0  0.8693962188584008  0.8090586563573983  0.5743324696796821  1.0000
  H   H25       1.0  0.395191749065346  0.5288840419165193  0.08372569742648077  1.0000
  H   H26       1.0  0.6048082512271612  0.47111595770721965  0.9162743020960259  1.0000
  H   H27       1.0  0.5816210214481875  0.7040211825281137  0.11635484923435875  1.0000
  H   H28       1.0  0.41837897884431957  0.29597881709562524  0.8836451502881479  1.0000
  H   H29       1.0  0.43887753551294745  0.3948621406967857  0.17050402590731276  1.0000
  H   H30       1.0  0.5611224651830566  0.6051378592691131  0.8294959743866744  1.0000
  H   H31       1.0  0.6936251217491062  0.05239658353854263  0.11889606085349523  1.0000
  H   H32       1.0  0.3063748780901157  0.9476034172394956  0.8811039394486943  1.0000
  C   C1        1.0  0.34074694707534997  0.6951194772903602  0.5783202637985154  1.0000
  C   C2        1.0  0.6592530523650049  0.3048805226778478  0.42167973650251567  1.0000
  C   C3        1.0  0.2037409706481781  0.4944107958465732  0.45039834011879964  1.0000
  C   C4        1.0  0.7962590283886799  0.5055892037794748  0.549601659410751  1.0000
  C   C5        1.0  0.08770836767954178  0.5225393374522769  0.38691855165571537  1.0000
  C   C6        1.0  0.9122916321596801  0.4774606633257613  0.6130814486464741  1.0000
  C   C7        1.0  0.22054037910544672  0.7223717520888646  0.5165091844054968  1.0000
  C   C8        1.0  0.7794596199314113  0.2776282475371835  0.483490815124054  1.0000
  C   C9        1.0  0.09683676843734211  0.6381532556473991  0.4228344504325944  1.0000
  C   C10       1.0  0.9031632322586621  0.36184674431849984  0.5771655498613928  1.0000
  C   C11       1.0  0.3275902561215911  0.5786324566185752  0.5439386373890686  1.0000
  C   C12       1.0  0.67240974497328  0.421367544157154  0.45606136290607696  1.0000
  C   C13       1.0  0.4030488144041811  0.28659855242116605  0.5949631402597365  1.0000
  C   C14       1.0  0.5969511850361737  0.7134014475470418  0.4050368600412945  1.0000
  C   C15       1.0  0.003887948198447631  0.2879996312557187  0.9361874697908861  1.0000
  C   C16       1.0  0.9961120528964234  0.7120003695200103  0.0638125305042594  1.0000
  C   C17       1.0  0.0629717069260861  0.008187303455670586  0.3817252734152788  1.0000
  C   C18       1.0  0.9370282933664212  0.9918126961680686  0.618274726107228  1.0000
  C   C19       1.0  0.13846447074609294  0.40253261478405716  0.9741951462470391  1.0000
  C   C20       1.0  0.8615355303487782  0.597467385991672  0.025804854048106427  1.0000
  C   C21       1.0  0.6284848880760396  0.25578825106608244  0.7094221787095458  1.0000
  C   C22       1.0  0.37151511136431514  0.7442117489021254  0.29057782159148515  1.0000
  C   C23       1.0  0.8445605069631119  0.2424728664093111  0.847712493083118  1.0000
  C   C24       1.0  0.15543949247724298  0.7575271335588968  0.15228750721791312  1.0000
  C   C25       1.0  0.8704485597940805  0.03975917098635083  0.24238752617022125  1.0000
  C   C26       1.0  0.12955144049842665  0.9602408286373881  0.7576124733522854  1.0000
  C   C27       1.0  0.8082745807070926  0.8440475117044169  0.240622047735492  1.0000
  C   C28       1.0  0.19172541998891143  0.15595248826148186  0.7593779525584952  1.0000
  C   C29       1.0  0.0328932656966276  0.21320227603685132  0.9863998054233603  1.0000
  C   C30       1.0  0.9671067341425941  0.7867977247411868  0.013600194878829188  1.0000
  C   C31       1.0  0.5440430641839463  0.13403210068015523  0.6480512184031951  1.0000
  C   C32       1.0  0.45595693651205765  0.8659678992857436  0.35194878189079193  1.0000
  C   C33       1.0  0.39377413451652993  0.09025630448172052  0.5628942747484584  1.0000
  C   C34       1.0  0.6062258665783411  0.9097436962940086  0.43710572554668703  1.0000
  C   C35       1.0  0.5548644997288078  0.33082626359693923  0.6801271681456537  1.0000
  C   C36       1.0  0.44513549971154703  0.6691737363712686  0.3198728321553776  1.0000
  C   C37       1.0  0.90391036479843  0.09530382287454371  0.9469579966729749  1.0000
  C   C38       1.0  0.09608963589757423  0.9046961770913552  0.05304200362101229  1.0000
  C   C39       1.0  0.18714589072814808  0.25191738395435526  0.07069298611563989  1.0000
  C   C40       1.0  0.81285410830871  0.7480826156716929  0.9293070134139109  1.0000
  C   C41       1.0  0.7860899173421162  0.30529896287185904  0.7995375381259935  1.0000
  C   C42       1.0  0.21391008335388786  0.6947010370940399  0.2004624621679936  1.0000
  C   C43       1.0  0.16420156864937258  0.12245564660608248  0.44366065371574  1.0000
  C   C44       1.0  0.8357984307909823  0.8775443533621253  0.556339346585291  1.0000
  C   C45       1.0  0.914388050812453  0.9658927854375472  0.2884671150067746  1.0000
  C   C46       1.0  0.08561194902676877  0.0341072153404909  0.7115328852954148  1.0000
  C   C47       1.0  0.6196236774731142  0.8728746881898011  0.1083599588106723  1.0000
  C   C48       1.0  0.3803763219672407  0.12712531177840683  0.8916400414903588  1.0000
  C   C49       1.0  0.31859806857020057  0.16510158616263196  0.5341074994760534  1.0000
  C   C50       1.0  0.6814019325246705  0.8348984146130972  0.4658925008190921  1.0000
  C   C51       1.0  0.29239228201340356  0.44009785995305256  0.05702488055735835  1.0000
  C   C52       1.0  0.7076077186826005  0.5599021400128463  0.9429751197366288  1.0000
  C   C53       1.0  0.6624997307621125  0.7979741737755984  0.15260583283646273  1.0000
  C   C54       1.0  0.3375002686782424  0.20202582619260953  0.8473941674645684  1.0000
  C   C55       1.0  0.317437519891853  0.36552954307593594  0.10602733105476393  1.0000
  C   C56       1.0  0.6825624804006543  0.634470456547803  0.8939726684677427  1.0000
  C   C57       1.0  0.7255896525755744  0.9946609272481951  0.15382147159054405  1.0000
  C   C58       1.0  0.2744103481204298  0.00533907271770387  0.846178528703443  1.0000
  C   C59       1.0  0.47164681670091413  0.8230333293778975  0.016995417984346225  1.0000
  C   C60       1.0  0.5283531835915931  0.1769666702458416  0.9830045815381605  1.0000
  N   N1        1.0  0.3486128633454684  0.7785293185452447  0.9418274861055388  1.0000
  N   N2        1.0  0.6513871364937535  0.22147068223279362  0.058172514196650815  1.0000
  N   N3        1.0  0.794810411909492  0.9990800504946022  0.9107059501808319  1.0000
  N   N4        1.0  0.2051895887818822  0.0009199499389669993  0.0892940493428332  1.0000
  F   F1        1.0  0.43544206847258404  0.5451925905834663  0.6022911799084572  1.0000
  F   F2        1.0  0.5645579318199231  0.4548074090402728  0.39770881961404964  1.0000
  F   F3        1.0  0.1968126881611861  0.3824242322837401  0.4214743443968918  1.0000
  F   F4        1.0  0.803187312534818  0.6175757676821588  0.5785256558970954  1.0000
  F   F5        1.0  0.22267781242233317  0.8329919785905465  0.5469028935405406  1.0000
  F   F6        1.0  0.777322187870174  0.16700802103319248  0.45309710598196623  1.0000
  F   F7        1.0  0.9854758024451713  0.6712835587995465  0.36623490769709377  1.0000
  F   F8        1.0  0.014524198250832754  0.32871644116635246  0.6337650925968934  1.0000
  I   I1        1.0  0.9100032669929391  0.3956702683306272  0.24341922393739465  1.0000
  I   I2        1.0  0.0899967324474157  0.6043297316375807  0.7565807763636364  1.0000
  I   I3        1.0  0.5305613510235379  0.821976004665527  0.7171975138138738  1.0000
  I   I4        1.0  0.4694386496678363  0.1780239957680422  0.2828024857097913  1.0000
