data_image0
_chemical_formula_structural       H44C44N8O10
_chemical_formula_sum              "H44 C44 N8 O10"
_cell_length_a       7.343774172492788
_cell_length_b       9.975696450525648
_cell_length_c       14.241495182408395
_cell_angle_alpha    70.21705998264837
_cell_angle_beta     85.4770298213933
_cell_angle_gamma    83.23412220449775

_space_group_name_H-M_alt    "P 1"
_space_group_IT_number       1

loop_
  _space_group_symop_operation_xyz
  'x, y, z'

loop_
  _atom_site_type_symbol
  _atom_site_label
  _atom_site_symmetry_multiplicity
  _atom_site_fract_x
  _atom_site_fract_y
  _atom_site_fract_z
  _atom_site_occupancy
  H   H1        1.0  0.964073875859909  0.10930150276807778  0.28389138575881206  1.0000
  H   H2        1.0  0.035926123132620884  0.8906984974655403  0.7161086142206101  1.0000
  H   H3        1.0  0.9656630894798741  0.0733310903901323  0.4086288364242948  1.0000
  H   H4        1.0  0.03433690951265591  0.9266689098434859  0.5913711635551272  1.0000
  H   H5        1.0  0.2213247122755425  0.11226019131627149  0.5724395231568119  1.0000
  H   H6        1.0  0.7786752880834361  0.8877398089131732  0.42756047676506076  1.0000
  H   H7        1.0  0.24178651122628034  0.21201008584113265  0.17583856964837272  1.0000
  H   H8        1.0  0.7582134877662496  0.7879899143924854  0.8241614303310494  1.0000
  H   H9        1.0  0.5230901935015261  0.15599865098178603  0.4959279888767947  1.0000
  H   H10       1.0  0.4769098054910038  0.8440013492518321  0.5040720111026274  1.0000
  H   H11       1.0  0.7049335808741499  0.2409722483523163  0.3326406226046396  1.0000
  H   H12       1.0  0.2950664196128443  0.7590277508067752  0.6673593775688097  1.0000
  H   H13       1.0  0.7961919408813358  0.6601415166212532  0.3703404393648013  1.0000
  H   H14       1.0  0.20380805960565837  0.3398584825378382  0.629659560808648  1.0000
  H   H15       1.0  0.8534390198678948  0.17287799866208287  0.530122705297421  1.0000
  H   H16       1.0  0.14656098061909945  0.8271220004970086  0.4698772948760284  1.0000
  H   H17       1.0  0.5778918618829962  0.5331891896123565  0.6833273551026143  1.0000
  H   H18       1.0  0.4221081371095337  0.4668108106212616  0.31667264487680785  1.0000
  H   H19       1.0  0.9196560030885844  0.35491982785155224  0.37847221791565105  1.0000
  H   H20       1.0  0.08034399727039412  0.6450801723778923  0.6215277820062218  1.0000
  H   H21       1.0  0.9363484458556921  0.9499599897526516  0.0669732762971102  1.0000
  H   H22       1.0  0.0636515545032866  0.050040010476793025  0.9330267236247625  1.0000
  H   H23       1.0  0.6951757274170044  0.6129935874293034  0.512713016036725  1.0000
  H   H24       1.0  0.30482427294197434  0.3870064128001412  0.4872869838851478  1.0000
  H   H25       1.0  0.724061560592443  0.09010967666206413  0.7009783386741588  1.0000
  H   H26       1.0  0.2759384397665357  0.9098903235673805  0.29902166124771384  1.0000
  H   H27       1.0  0.0025598877019624  0.42209058917899583  0.2283696150586071  1.0000
  H   H28       1.0  0.9974401112905675  0.5779094110546222  0.7716303849208151  1.0000
  H   H29       1.0  0.10204905016766322  0.528372940185218  0.050935482546659167  1.0000
  H   H30       1.0  0.8979509488248667  0.47162706004840005  0.949064517432763  1.0000
  H   H31       1.0  0.5163859798964194  0.09672865148761708  0.9340566011002273  1.0000
  H   H32       1.0  0.4836140205905747  0.9032713476714743  0.06594339907322214  1.0000
  H   H33       1.0  0.7230689269137108  0.060319256815450896  0.868856587124837  1.0000
  H   H34       1.0  0.27693107345050233  0.9396807434185867  0.13114341349789457  1.0000
  H   H35       1.0  0.506134476722584  0.049651835598517095  0.8248176270074362  1.0000
  H   H36       1.0  0.4938655237644102  0.9503481635605744  0.17518237316601312  1.0000
  H   H37       1.0  0.06652230178225406  0.7920612050483513  0.9669250221608008  1.0000
  H   H38       1.0  0.9334776985767247  0.20793879518109323  0.03307497776107202  1.0000
  H   H39       1.0  0.4379125731334527  0.3077237024212766  0.9235781363684868  1.0000
  H   H40       1.0  0.5620874258590771  0.6922762978123415  0.0764218636109354  1.0000
  H   H41       1.0  0.3886606810516323  0.43962762538509575  0.8062290235720495  1.0000
  H   H42       1.0  0.6113393194353619  0.5603723737739957  0.1937709766013998  1.0000
  H   H43       1.0  0.6050148603944238  0.4247201699214066  0.8598749635051319  1.0000
  H   H44       1.0  0.39498513996455487  0.5752798303080379  0.14012503641674073  1.0000
  C   C1        1.0  0.19642495782647135  0.1563788586279163  0.3360285098160115  1.0000
  C   C2        1.0  0.8035750411660585  0.8436211416057019  0.6639714901634105  1.0000
  C   C3        1.0  0.2812521031707868  0.13977806442814442  0.4267724021105444  1.0000
  C   C4        1.0  0.7187478971881918  0.8602219358013001  0.5732275978113284  1.0000
  C   C5        1.0  0.300627274387298  0.19960313227815105  0.24644828351035736  1.0000
  C   C6        1.0  0.6993727259716807  0.8003968679512936  0.7535517164115154  1.0000
  C   C7        1.0  0.46223193008852065  0.17094343304126314  0.42534847516354  1.0000
  C   C8        1.0  0.537768070270458  0.8290565671881814  0.5746515247583327  1.0000
  C   C9        1.0  0.48169836407519906  0.22987532868713226  0.2474083025627893  1.0000
  C   C10       1.0  0.5183016362837796  0.7701246715423123  0.7525916973590835  1.0000
  C   C11       1.0  0.5632510393765671  0.21813176038455637  0.3354433081109721  1.0000
  C   C12       1.0  0.43674896098241156  0.7818682398448883  0.6645566918109005  1.0000
  C   C13       1.0  0.9163450618880443  0.6269525682555191  0.24745580696263922  1.0000
  C   C14       1.0  0.08365493847093416  0.37304743197392554  0.7525441929592335  1.0000
  C   C15       1.0  0.790230801103249  0.25081583582734607  0.5639207527420801  1.0000
  C   C16       1.0  0.2097691992557298  0.7491841644020985  0.43607924717979263  1.0000
  C   C17       1.0  0.8991169743981309  0.777712904523902  0.20156287621268093  1.0000
  C   C18       1.0  0.10088302596084779  0.22228709570554267  0.7984371237091917  1.0000
  C   C19       1.0  0.6400556473138993  0.3043969840684032  0.7070240657220944  1.0000
  C   C20       1.0  0.3599443516786306  0.6956030161652149  0.2929759342573277  1.0000
  C   C21       1.0  0.8356343105297602  0.881915394844011  0.2564161925629799  1.0000
  C   C22       1.0  0.1643656898292185  0.1180846053854335  0.7435838073588927  1.0000
  C   C23       1.0  0.7849909332860149  0.39871209986920136  0.5066969168253301  1.0000
  C   C24       1.0  0.21500906570651515  0.6012879003644168  0.493303083154092  1.0000
  C   C25       1.0  0.6361831478988356  0.4534881843982943  0.6501657986675531  1.0000
  C   C26       1.0  0.3638168524601432  0.5465118158311504  0.34983420125431963  1.0000
  C   C27       1.0  0.8579850360635468  0.4391746826190258  0.40746986479450376  1.0000
  C   C28       1.0  0.14201496429543184  0.5608253176104188  0.592530135127369  1.0000
  C   C29       1.0  0.9520219034665351  0.8338921890938519  0.10038002372677385  1.0000
  C   C30       1.0  0.04797809689244344  0.16610781113559286  0.8996199761950989  1.0000
  C   C31       1.0  0.7042601392970566  0.49828957682265573  0.5532867804464782  1.0000
  C   C32       1.0  0.29573986118993767  0.5017104223364358  0.44671321972697126  1.0000
  C   C33       1.0  0.7191674685677945  0.20422059153592576  0.6603620750084538  1.0000
  C   C34       1.0  0.2808325317911841  0.7957794086935189  0.33963792491341893  1.0000
  C   C35       1.0  0.9903807234305357  0.5379143730367394  0.19315123791149108  1.0000
  C   C36       1.0  0.009619276928442935  0.4620856271927051  0.8068487620103817  1.0000
  C   C37       1.0  0.04390096892434004  0.5977313541028832  0.09295033415923538  1.0000
  C   C38       1.0  0.9560990314346385  0.4022686461265613  0.9070496657626372  1.0000
  C   C39       1.0  0.5799417225328786  0.10832974415046112  0.860125654094641  1.0000
  C   C40       1.0  0.42005827645965144  0.8916702560831571  0.13987434588478107  1.0000
  C   C41       1.0  0.0232904104448509  0.7463320826751225  0.04544103155389896  1.0000
  C   C42       1.0  0.9767095900421432  0.2536679164839689  0.9545589686195505  1.0000
  C   C43       1.0  0.49652467932939387  0.36419172762864654  0.8499344908853194  1.0000
  C   C44       1.0  0.5034753210295849  0.635808272600798  0.15006550903655339  1.0000
  N   N1        1.0  0.0135813759676729  0.13529463736314895  0.34056161904741905  1.0000
  N   N2        1.0  0.9864186245193213  0.8647053617959423  0.6594383811260304  1.0000
  N   N3        1.0  0.5887526837760351  0.2724749511149188  0.1542810081160457  1.0000
  N   N4        1.0  0.41124731658294367  0.7275250491145259  0.845718991805827  1.0000
  N   N5        1.0  0.8533297717979524  0.5733895755662547  0.3472015912296449  1.0000
  N   N6        1.0  0.14667022856102618  0.4266104246631899  0.6527984086922277  1.0000
  N   N7        1.0  0.5712077444180287  0.26037344369752197  0.8020024279553477  1.0000
  N   N8        1.0  0.42879225594095005  0.7396265565319228  0.197997571966525  1.0000
  O   O1        1.0  0.17685741931681032  0.0921870388106073  0.511224738836556  1.0000
  O   O2        1.0  0.8231425811701839  0.9078129603484841  0.4887752613368934  1.0000
  O   O3        1.0  0.7299229376913685  0.33297192557887667  0.15019120005248324  1.0000
  O   O4        1.0  0.27007706130116144  0.6670280746547415  0.8498087999269388  1.0000
  O   O5        1.0  0.5344426374510577  0.24701300928099762  0.08168609779539796  1.0000
  O   O6        1.0  0.4655573629079209  0.7529869909484471  0.9183139021264749  1.0000
  O   O7        1.0  0.7568601493557415  0.8302180028568108  0.34469875589940335  1.0000
  O   O8        1.0  0.2431398510032371  0.1697819973726338  0.6553012440224694  1.0000
  O   O9        1.0  0.8636700083383884  0.010427823024154566  0.21499636328374733  1.0000
  O   O10       1.0  0.1363299920205902  0.9895721772052901  0.7850036366381253  1.0000
