data_image0
_chemical_formula_structural       H52C76N12O32Cl16
_chemical_formula_sum              "H52 C76 N12 O32 Cl16"
_cell_length_a       9.129339674302765
_cell_length_b       10.42638529009534
_cell_length_c       22.834380752497058
_cell_angle_alpha    90.0
_cell_angle_beta     93.38410589915225
_cell_angle_gamma    90.0

_space_group_name_H-M_alt    "P 1"
_space_group_IT_number       1

loop_
  _space_group_symop_operation_xyz
  'x, y, z'

loop_
  _atom_site_type_symbol
  _atom_site_label
  _atom_site_symmetry_multiplicity
  _atom_site_fract_x
  _atom_site_fract_y
  _atom_site_fract_z
  _atom_site_occupancy
  H   H1        1.0  0.15734128438449946  0.7946768404838255  0.19790810798382158  1.0000
  H   H2        1.0  0.8426587157249228  0.29467684000884503  0.3020918916504862  1.0000
  H   H3        1.0  0.8426587163556707  0.2053231595070303  0.8020918917563613  1.0000
  H   H4        1.0  0.15734128391986257  0.7053231599820109  0.697908108089592  1.0000
  H   H5        1.0  0.3442059285311252  0.9783004144005434  0.9808227577264135  1.0000
  H   H6        1.0  0.6557940706490232  0.4783004139255627  0.519177242119435  1.0000
  H   H7        1.0  0.6557940711136601  0.02169958559031259  0.019177242013664626  1.0000
  H   H8        1.0  0.3442059289957621  0.5216995860652931  0.4808227576206433  1.0000
  H   H9        1.0  0.9368586046970163  0.7735372696865158  0.993828648798492  1.0000
  H   H10       1.0  0.0631413956430275  0.2735372701706404  0.5061713514861624  1.0000
  H   H11       1.0  0.06314139610766441  0.2264627303043401  0.006171351380392141  1.0000
  H   H12       1.0  0.9368586040662682  0.7264627298202155  0.4938286486926168  1.0000
  H   H13       1.0  0.0005689169407156727  0.48711801249324044  0.24035612853546803  1.0000
  H   H14       1.0  0.9994310831687063  0.9871180129682209  0.25964387109883985  1.0000
  H   H15       1.0  0.9994310837994544  0.5128819874976154  0.7596438712047149  1.0000
  H   H16       1.0  0.0005689164760787506  0.01288198702263494  0.7403561286412382  1.0000
  H   H17       1.0  0.11229531942752602  0.5364052396292041  0.30348359118040197  1.0000
  H   H18       1.0  0.8877046807464066  0.03640524011332878  0.19651640889260696  1.0000
  H   H19       1.0  0.8877046802172591  0.46359476036165176  0.6965164085596762  1.0000
  H   H20       1.0  0.11229531896288912  0.9635947598775272  0.8034835912861723  1.0000
  H   H21       1.0  0.05356588257051949  0.3059519911498331  0.19116045605827128  1.0000
  H   H22       1.0  0.9464341176034131  0.8059519906657086  0.3088395440147377  1.0000
  H   H23       1.0  0.9464341182341611  0.6940480088410227  0.8088395441206127  1.0000
  H   H24       1.0  0.0535658820413721  0.19404800932514737  0.6911604557253406  1.0000
  H   H25       1.0  0.2002661502040915  0.10234132350870019  0.18598668563003773  1.0000
  H   H26       1.0  0.7997338499698411  0.6023413239836808  0.3140133144429712  1.0000
  H   H27       1.0  0.7997338506005891  0.8976586764821557  0.8140133145488463  1.0000
  H   H28       1.0  0.2002661497394546  0.3976586760071752  0.6859866857358081  1.0000
  H   H29       1.0  0.430703184616721  0.07963457391016937  0.24996555671551673  1.0000
  H   H30       1.0  0.5692968143973162  0.5796345734260447  0.2500344429186864  1.0000
  H   H31       1.0  0.5692968150280643  0.9203654260806865  0.7500344430245615  1.0000
  H   H32       1.0  0.43070318524746903  0.42036542656481113  0.7499655568213919  1.0000
  H   H33       1.0  0.5107482375939468  0.26379108995835415  0.3162181555894443  1.0000
  H   H34       1.0  0.4892517625799858  0.7637910904333347  0.1837818444835646  1.0000
  H   H35       1.0  0.48925176211534904  0.7362089100325018  0.683781844589335  1.0000
  H   H36       1.0  0.5107482370647993  0.23620890955752125  0.8162181552565135  1.0000
  H   H37       1.0  0.3489784860829509  0.4565670745471244  0.31887923614429103  1.0000
  H   H38       1.0  0.6510215140909817  0.9565670740629998  0.18112076392871793  1.0000
  H   H39       1.0  0.6510215147217299  0.5434329254437316  0.681120764034593  1.0000
  H   H40       1.0  0.34897848555380345  0.043432925927856164  0.8188792358113604  1.0000
  H   H41       1.0  0.3463521028494528  0.6061754696523599  0.12410187186135015  1.0000
  H   H42       1.0  0.6536478973244799  0.1061754701364846  0.3758981282116588  1.0000
  H   H43       1.0  0.6536478968598429  0.39382453033849596  0.8758981283174291  1.0000
  H   H44       1.0  0.3463521034156903  0.8938245298543713  0.6241018715285241  1.0000
  H   H45       1.0  0.5224696220869267  0.7158431011647136  0.9089303148707172  1.0000
  H   H46       1.0  0.47753037825311695  0.21584310164883821  0.5910696854139371  1.0000
  H   H47       1.0  0.47753037762236905  0.2841568988261423  0.09106968530806206  1.0000
  H   H48       1.0  0.5224696214561788  0.7841568983420176  0.40893031476484215  1.0000
  H   H49       1.0  0.14039482325309488  0.4868647559784914  0.937127265473411  1.0000
  H   H50       1.0  0.8596051770224383  0.9868647564534719  0.5628727343725424  1.0000
  H   H51       1.0  0.8596051763916903  0.5131352440123645  0.06287273426666726  1.0000
  H   H52       1.0  0.14039482378224227  0.01313524353738396  0.4371272658063417  1.0000
  C   C1        1.0  0.17615341941696175  0.8850437321519335  0.10596076732728238  1.0000
  C   C2        1.0  0.8238465806924603  0.385043731676953  0.39403923230702553  1.0000
  C   C3        1.0  0.8238465802278235  0.11495626783892236  0.8940392324127959  1.0000
  C   C4        1.0  0.17615341895232486  0.6149562683139029  0.6059607674330527  1.0000
  C   C5        1.0  0.27818315394924364  0.9428850648113835  0.06825103954250732  1.0000
  C   C6        1.0  0.7218168462246891  0.442885064336403  0.43174896053050166  1.0000
  C   C7        1.0  0.7218168457600521  0.05711493613857758  0.931748960636272  1.0000
  C   C8        1.0  0.2781831534200962  0.557114935654453  0.5682510392095765  1.0000
  C   C9        1.0  0.262533104489943  0.9370072971771665  0.007949716455158221  1.0000
  C   C10       1.0  0.7374668956839896  0.4370072967021858  0.4920502836178507  1.0000
  C   C11       1.0  0.7374668952193528  0.06299270281368954  0.992050283723621  1.0000
  C   C12       1.0  0.26253310402530605  0.56299270328867  0.5079497165609286  1.0000
  C   C13       1.0  0.13869272563753335  0.8757602022125642  0.981597393456062  1.0000
  C   C14       1.0  0.8613072747025105  0.37576020269668886  0.5184026068285922  1.0000
  C   C15       1.0  0.8613072751671472  0.12423979777829167  0.018402606722821888  1.0000
  C   C16       1.0  0.13869272500678537  0.6242397972941671  0.4815973933501871  1.0000
  C   C17       1.0  0.03238500531513286  0.8197168905813423  0.015280426131528363  1.0000
  C   C18       1.0  0.9676149948587999  0.3197168901063619  0.4847195739414805  1.0000
  C   C19       1.0  0.9676149954895478  0.18028310940951348  0.9847195740473556  1.0000
  C   C20       1.0  0.03238500478598546  0.6802831098844939  0.5152804257985976  1.0000
  C   C21       1.0  0.05212896774171546  0.8240799827493649  0.07563688759605955  1.0000
  C   C22       1.0  0.9478710324322172  0.3240799822743844  0.42436311247694947  1.0000
  C   C23       1.0  0.9478710319675803  0.17592001724149095  0.9243631125827199  1.0000
  C   C24       1.0  0.05212896837246348  0.6759200177164715  0.5756368877019347  1.0000
  C   C25       1.0  0.18201510451912561  0.6091098883553657  0.22117451601274268  1.0000
  C   C26       1.0  0.817984895654807  0.1091098878803852  0.27882548406026625  1.0000
  C   C27       1.0  0.8179848951901701  0.39089011163549015  0.7788254841660366  1.0000
  C   C28       1.0  0.18201510405448876  0.8908901121104706  0.721174516118513  1.0000
  C   C29       1.0  0.11360058963119618  0.5048687165820117  0.2576032360367352  1.0000
  C   C30       1.0  0.886399409382841  0.004868716107031166  0.24239676359746798  1.0000
  C   C31       1.0  0.8863994100135891  0.49513128340884416  0.7423967637033431  1.0000
  C   C32       1.0  0.1136005902619442  0.9951312838838248  0.7576032361426103  1.0000
  C   C33       1.0  0.15510957860103647  0.29082488087990777  0.2176361597181883  1.0000
  C   C34       1.0  0.8448904215083857  0.7908248813548883  0.2823638399161196  1.0000
  C   C35       1.0  0.8448904210437488  0.7091751191109481  0.7823638400218899  1.0000
  C   C36       1.0  0.15510957813639956  0.20917511863596758  0.7176361598239586  1.0000
  C   C37       1.0  0.23751174704372374  0.1795399534849611  0.21523115081453695  1.0000
  C   C38       1.0  0.762488253130209  0.6795399539599416  0.284768849258472  1.0000
  C   C39       1.0  0.762488253760957  0.8204600465058949  0.784768849364347  1.0000
  C   C40       1.0  0.23751174651457635  0.32046004603091427  0.7152311504816061  1.0000
  C   C41       1.0  0.3661776657605333  0.16740395941996114  0.2508610160905194  1.0000
  C   C42       1.0  0.6338223344133993  0.6674039598949416  0.24913898398248951  1.0000
  C   C43       1.0  0.6338223350441474  0.8325960405708946  0.7491389840883647  1.0000
  C   C44       1.0  0.3661776652313859  0.3325960400959142  0.7508610157575886  1.0000
  C   C45       1.0  0.4106270795895618  0.2680481540093215  0.28811797956636204  1.0000
  C   C46       1.0  0.5893729205843709  0.768048153525197  0.21188202050664692  1.0000
  C   C47       1.0  0.5893729200552235  0.7319518459815344  0.7118820201737162  1.0000
  C   C48       1.0  0.4106270791249249  0.23195184646565903  0.7881179796721323  1.0000
  C   C49       1.0  0.32365626203142006  0.37616895989119314  0.28976158834851434  1.0000
  C   C50       1.0  0.6763437381425126  0.8761689603661738  0.2102384117244946  1.0000
  C   C51       1.0  0.6763437376778757  0.6238310400996627  0.7102384118302649  1.0000
  C   C52       1.0  0.32365626259765756  0.12383103962468224  0.7897615880156884  1.0000
  C   C53       1.0  0.38466692499227084  0.6224122454178613  0.03919816544593104  1.0000
  C   C54       1.0  0.6153330740217663  0.1224122449428808  0.4608018341882721  1.0000
  C   C55       1.0  0.6153330746525143  0.37758775457299454  0.9608018342941472  1.0000
  C   C56       1.0  0.38466692562301885  0.8775877550479751  0.5391981655518061  1.0000
  C   C57       1.0  0.47743190620192055  0.6803526219905437  0.9990550606089275  1.0000
  C   C58       1.0  0.5225680941381232  0.18035262247466832  0.5009449396757268  1.0000
  C   C59       1.0  0.52256809460276  0.31964737800031223  0.0009449395699565605  1.0000
  C   C60       1.0  0.4774319055711726  0.8196473775161875  0.49905506050305243  1.0000
  C   C61       1.0  0.45043868176817253  0.6706258358438298  0.9389557814024108  1.0000
  C   C62       1.0  0.5495613185718712  0.17062583536884934  0.5610442188822437  1.0000
  C   C63       1.0  0.5495613179411232  0.329374164147026  0.06104421877636858  1.0000
  C   C64       1.0  0.4504386822328095  0.8293741646220065  0.4389557812966404  1.0000
  C   C65       1.0  0.326787444038468  0.6026469783318877  0.9175741165629184  1.0000
  C   C66       1.0  0.6732125562370652  0.10264697881601242  0.5824258832830349  1.0000
  C   C67       1.0  0.6732125567662126  0.3973530216589681  0.08242588361596564  1.0000
  C   C68       1.0  0.32678744340772  0.8973530211748435  0.4175741164570433  1.0000
  C   C69       1.0  0.23322415741722577  0.5422809586147855  0.9550583228307786  1.0000
  C   C70       1.0  0.7667758417629226  0.0422809590989102  0.5449416770150699  1.0000
  C   C71       1.0  0.7667758422275595  0.4577190413760703  0.044941676909299566  1.0000
  C   C72       1.0  0.23322415794637313  0.9577190408919457  0.45505832316370937  1.0000
  C   C73       1.0  0.26339240273186704  0.5514700051859893  0.015193680979958955  1.0000
  C   C74       1.0  0.7366075973775551  0.051470005670113964  0.4848063186543489  1.0000
  C   C75       1.0  0.7366075980083031  0.4485299948048666  0.9848063187602238  1.0000
  C   C76       1.0  0.26339240226723015  0.9485299943207419  0.5151936810857293  1.0000
  N   N1        1.0  0.12078342514425433  0.8710163721483725  0.9191823823309878  1.0000
  N   N2        1.0  0.8792165751312789  0.371016371673392  0.5808176175149653  1.0000
  N   N3        1.0  0.8792165756604263  0.12898362784248332  0.08081761784789605  1.0000
  N   N4        1.0  0.12078342451350634  0.6289836283174639  0.4191823822251129  1.0000
  N   N5        1.0  0.1982064867092799  0.38563748491239896  0.25524468418657353  1.0000
  N   N6        1.0  0.8017935123692679  0.8856374844282743  0.2447553158863307  1.0000
  N   N7        1.0  0.8017935130000159  0.614362515078457  0.7447553159922059  1.0000
  N   N8        1.0  0.19820648734002788  0.11436251556258158  0.7552446842924485  1.0000
  N   N9        1.0  0.29631696580556494  0.5929262978486641  0.8544775091789105  1.0000
  N   N10       1.0  0.7036830345344789  0.09292629833278877  0.645522491105744  1.0000
  N   N11       1.0  0.7036830349991157  0.4070737021421918  0.14552249099997355  1.0000
  N   N12       1.0  0.29631696517481687  0.9070737016580671  0.35447750907303543  1.0000
  O   O1        1.0  0.19748419666341246  0.8899351598693082  0.16219924905599786  1.0000
  O   O2        1.0  0.8025158035105201  0.38993516035343284  0.33780075101701107  1.0000
  O   O3        1.0  0.8025158041412681  0.11006484012154767  0.8378007511228862  1.0000
  O   O4        1.0  0.19748419613426507  0.6100648396374231  0.6621992487230672  1.0000
  O   O5        1.0  0.21846851017459037  0.9200803205606725  0.8896993267451033  1.0000
  O   O6        1.0  0.7815314901009428  0.4200803200856919  0.6103006731008499  1.0000
  O   O7        1.0  0.7815314894701948  0.07991967943018347  0.11030067299497484  1.0000
  O   O8        1.0  0.2184685106392273  0.579919679905164  0.389699326639333  1.0000
  O   O9        1.0  0.008652689036968676  0.8183990848780511  0.8956691957938994  1.0000
  O   O10       1.0  0.9913473112385646  0.31839908536217576  0.6043308040520539  1.0000
  O   O11       1.0  0.9913473117032013  0.18160091511280474  0.10433080394628357  1.0000
  O   O12       1.0  0.00865268840622068  0.6816009146286801  0.3956691956880243  1.0000
  O   O13       1.0  0.27982638347588573  0.5822186530711346  0.18773238022523925  1.0000
  O   O14       1.0  0.7201736166335364  0.08221865259615409  0.3122676194090686  1.0000
  O   O15       1.0  0.7201736172642844  0.41778134691972124  0.8122676195149438  1.0000
  O   O16       1.0  0.27982638301124885  0.9177813473947017  0.6877323803310096  1.0000
  O   O17       1.0  0.12548142287124828  0.7212173817462331  0.22972700214554057  1.0000
  O   O18       1.0  0.8745185773026843  0.22121738127125254  0.2702729979274684  1.0000
  O   O19       1.0  0.874518576773537  0.2787826182446228  0.7702729975945377  1.0000
  O   O20       1.0  0.1254814224066114  0.7787826187196033  0.7297270022513109  1.0000
  O   O21       1.0  0.4197953170449368  0.6372135179304551  0.09610104636831934  1.0000
  O   O22       1.0  0.580204682033611  0.1372135184145797  0.4038989537045849  1.0000
  O   O23       1.0  0.5802046826643589  0.3627864820604008  0.9038989538104599  1.0000
  O   O24       1.0  0.41979531767568484  0.8627864815762762  0.5961010464741945  1.0000
  O   O25       1.0  0.38872892854909297  0.6353105132506982  0.8216027424434107  1.0000
  O   O26       1.0  0.6112710706310553  0.1353105137348228  0.6783972574024378  1.0000
  O   O27       1.0  0.6112710711602027  0.3646894867401577  0.17839725773536855  1.0000
  O   O28       1.0  0.38872892901372985  0.8646894862560331  0.32160274233764036  1.0000
  O   O29       1.0  0.17836214213459747  0.5415785637007057  0.8364745452272928  1.0000
  O   O30       1.0  0.8216378570455509  0.04157856418483034  0.6635254546185557  1.0000
  O   O31       1.0  0.8216378575101878  0.4584214362901502  0.16352545451278538  1.0000
  O   O32       1.0  0.17836214266374487  0.9584214358060256  0.3364745455602236  1.0000
  Cl  Cl1       1.0  0.42888172091585663  0.019872434619966493  0.10116039271395548  1.0000
  Cl  Cl2       1.0  0.571118279258076  0.5198724341358418  0.39883960735905344  1.0000
  Cl  Cl3       1.0  0.5711182798888241  0.9801275653708894  0.8988396074649285  1.0000
  Cl  Cl4       1.0  0.4288817204512197  0.480127565855014  0.6011603928197258  1.0000
  Cl  Cl5       1.0  0.9225506723760267  0.7540459920916762  0.11748193120327725  1.0000
  Cl  Cl6       1.0  0.07744932779790592  0.25404599161669567  0.3825180688697317  1.0000
  Cl  Cl7       1.0  0.0774493272687585  0.24595400789917968  0.8825180685368009  1.0000
  Cl  Cl8       1.0  0.9225506730067747  0.7459540083741601  0.6174819313091523  1.0000
  Cl  Cl9       1.0  0.6276635695393572  0.7630505672524645  0.02765491865995668  1.0000
  Cl  Cl10      1.0  0.3723364306345754  0.2630505677365891  0.4723450814130522  1.0000
  Cl  Cl11      1.0  0.3723364301699385  0.23694943273839147  0.9723450815188226  1.0000
  Cl  Cl12      1.0  0.6276635701701052  0.7369494322542668  0.5276549187658318  1.0000
  Cl  Cl13      1.0  0.15508822368711667  0.47054939401295975  0.062275535952785156  1.0000
  Cl  Cl14      1.0  0.8449117764868159  0.9705493944879403  0.4377244641202238  1.0000
  Cl  Cl15      1.0  0.8449117771175639  0.5294506059778961  0.9377244642260988  1.0000
  Cl  Cl16      1.0  0.15508822322247978  0.029450605502915592  0.5622755360585555  1.0000
