data_image0
_chemical_formula_structural       H72C88O8Cl4Br8
_chemical_formula_sum              "H72 C88 O8 Cl4 Br8"
_cell_length_a       12.60003065444384
_cell_length_b       12.785456679752361
_cell_length_c       13.081195078845248
_cell_angle_alpha    90.0
_cell_angle_beta     109.29045211703067
_cell_angle_gamma    90.0

_space_group_name_H-M_alt    "P 1"
_space_group_IT_number       1

loop_
  _space_group_symop_operation_xyz
  'x, y, z'

loop_
  _atom_site_type_symbol
  _atom_site_label
  _atom_site_symmetry_multiplicity
  _atom_site_fract_x
  _atom_site_fract_y
  _atom_site_fract_z
  _atom_site_occupancy
  H   H1        1.0  0.7040423244142638  0.24584126314218446  0.22041693635416765  1.0000
  H   H2        1.0  0.2959576753746611  0.7458412631518688  0.27958306339483985  1.0000
  H   H3        1.0  0.29595767581808446  0.7541587368771844  0.7795830632535916  1.0000
  H   H4        1.0  0.7040423243364482  0.25415873686749996  0.7204169370187707  1.0000
  H   H5        1.0  0.6023638315014636  0.2647816260924964  0.09153544181643038  1.0000
  H   H6        1.0  0.3976361690824953  0.7647816261021808  0.4084645579366442  1.0000
  H   H7        1.0  0.39763616873088486  0.7352183739268725  0.9084645577913287  1.0000
  H   H8        1.0  0.602363831149853  0.23521837391718806  0.5915354416711149  1.0000
  H   H9        1.0  0.657661241772025  0.28484461613071915  0.9282085800178462  1.0000
  H   H10       1.0  0.3423387575874738  0.7848446161404037  0.5717914202504489  1.0000
  H   H11       1.0  0.3423387579390842  0.7151553838886497  0.07179142039576443  1.0000
  H   H12       1.0  0.6576612421236354  0.2151553838789653  0.4282085801631616  1.0000
  H   H13       1.0  0.8039991018237987  0.35100658368402715  0.8562370425876621  1.0000
  H   H14       1.0  0.1960008983307338  0.8510065836937115  0.6437629576847  1.0000
  H   H15       1.0  0.19600089788731054  0.6489934163353418  0.1437629578259485  1.0000
  H   H16       1.0  0.8039991021754092  0.14899341632565732  0.3562370427329775  1.0000
  H   H17       1.0  0.9056663941247259  0.2477743626488404  0.24392865078609036  1.0000
  H   H18       1.0  0.0943336059379937  0.7477743626585248  0.25607134977283574  1.0000
  H   H19       1.0  0.09433360638141704  0.7522256373705284  0.7560713496315874  1.0000
  H   H20       1.0  0.9056663937731156  0.2522256373608441  0.743928650640775  1.0000
  H   H21       1.0  0.1044564807020755  0.2927830052350156  0.27273034082208697  1.0000
  H   H22       1.0  0.8955435190868496  0.7927830052446999  0.22726965892692058  1.0000
  H   H23       1.0  0.8955435190090336  0.7072169947843533  0.7272696595915237  1.0000
  H   H24       1.0  0.1044564811454988  0.20721699477466887  0.7727303406808385  1.0000
  H   H25       1.0  0.2493256947803071  0.36625813745205227  0.20155701418719305  1.0000
  H   H26       1.0  0.7506743052824125  0.8662581374617367  0.298442986371733  1.0000
  H   H27       1.0  0.7506743049308021  0.6337418625673166  0.7984429862264176  1.0000
  H   H28       1.0  0.24932569522373044  0.13374186255763215  0.7015570140459447  1.0000
  H   H29       1.0  0.0014177933294833097  0.39731046588618135  0.8841248478772699  1.0000
  H   H30       1.0  0.9985822068250493  0.8973104658958658  0.6158751523950924  1.0000
  H   H31       1.0  0.9985822061078313  0.6026895341331875  0.11587515172642232  1.0000
  H   H32       1.0  0.0014177936810937438  0.10268953412350305  0.3841248480225853  1.0000
  H   H33       1.0  0.14498958251789204  0.5173456792102725  0.8777285473017896  1.0000
  H   H34       1.0  0.8550104176366404  0.017345679200588045  0.6222714529705725  1.0000
  H   H35       1.0  0.8550104179882508  0.48265432080909637  0.12227145311588802  1.0000
  H   H36       1.0  0.1449895818006741  0.9826543208187808  0.37772854663311944  1.0000
  H   H37       1.0  0.15951518396586947  0.3834195682476748  0.8470681722343906  1.0000
  H   H38       1.0  0.8404848161886631  0.8834195682573592  0.6529318280379717  1.0000
  H   H39       1.0  0.8404848165402735  0.616580431771694  0.15293182818328704  1.0000
  H   H40       1.0  0.1595151843174799  0.11658043176200962  0.34706817237970605  1.0000
  H   H41       1.0  0.3456211274096516  0.5481000558312268  0.9265762312431411  1.0000
  H   H42       1.0  0.6543788719498471  0.04810005582154235  0.573423769025154  1.0000
  H   H43       1.0  0.6543788723014575  0.45189994418814206  0.07342376917046954  1.0000
  H   H44       1.0  0.345621127761262  0.9518999441978265  0.4265762313884566  1.0000
  H   H45       1.0  0.2972852453474744  0.4885217459530728  0.7977307764356883  1.0000
  H   H46       1.0  0.7027147540120244  0.9885217459627573  0.7022692238326068  1.0000
  H   H47       1.0  0.7027147540898402  0.5114782540662961  0.20226922316800366  1.0000
  H   H48       1.0  0.2972852456990848  0.011478254056611646  0.2977307765810039  1.0000
  H   H49       1.0  0.41998667237369663  0.3800383108485189  0.014811065867316503  1.0000
  H   H50       1.0  0.5800133276890231  0.8800383108582034  0.4851889346916097  1.0000
  H   H51       1.0  0.5800133281324463  0.6199616891708499  0.9851889345503612  1.0000
  H   H52       1.0  0.4199866720220862  0.11996168916116552  0.5148110657220011  1.0000
  H   H53       1.0  0.48109992725961115  0.41366224394437817  0.9148975781668957  1.0000
  H   H54       1.0  0.5189000728949213  0.9136622439540626  0.5851024221054666  1.0000
  H   H55       1.0  0.5189000721777034  0.5863377560749907  0.08510242143679647  1.0000
  H   H56       1.0  0.48109992761122156  0.08633775606530628  0.4148975783122111  1.0000
  H   H57       1.0  0.3600774014804488  0.2854761461731921  0.7876441405212262  1.0000
  H   H58       1.0  0.6399225986740837  0.7854761461828765  0.7123558597511361  1.0000
  H   H59       1.0  0.6399225990256941  0.7145238538461768  0.21235585989645153  1.0000
  H   H60       1.0  0.3600774010370255  0.21452385383649233  0.2876441406624746  1.0000
  H   H61       1.0  0.2823583438194018  0.2626261794244362  0.8781108491871573  1.0000
  H   H62       1.0  0.7176416560613361  0.7626261794341207  0.6218891502752862  1.0000
  H   H63       1.0  0.7176416564129464  0.7373738205949326  0.1218891504206018  1.0000
  H   H64       1.0  0.2823583433759785  0.23737382058524822  0.3781108493284057  1.0000
  H   H65       1.0  0.7371745768251772  0.08102254584621253  0.002250571092021535  1.0000
  H   H66       1.0  0.2628254229637479  0.581022545855897  0.497749428656986  1.0000
  H   H67       1.0  0.26282542340717124  0.9189774541731563  0.9977494285157377  1.0000
  H   H68       1.0  0.7371745767473614  0.4189774541634719  0.5022505717566247  1.0000
  H   H69       1.0  0.4299780166877427  0.8925160200238559  0.7593991159826529  1.0000
  H   H70       1.0  0.5700219834667898  0.39251602001417146  0.7406008842897092  1.0000
  H   H71       1.0  0.5700219838184003  0.10748397999551294  0.2406008844350247  1.0000
  H   H72       1.0  0.42997801597052476  0.6074839800051974  0.2593991153139828  1.0000
  C   C1        1.0  0.6566327945602256  0.108021263893309  0.12242645272277111  1.0000
  C   C2        1.0  0.3433672055024941  0.6080212639029935  0.37757354783615504  1.0000
  C   C3        1.0  0.34336720515088365  0.8919787361260599  0.8775735476908395  1.0000
  C   C4        1.0  0.6566327950036488  0.3919787361163754  0.6224264525815226  1.0000
  C   C5        1.0  0.6817694795406154  0.22427417430783075  0.1345344250096828  1.0000
  C   C6        1.0  0.3182305205221043  0.7242741743175153  0.3654655755492433  1.0000
  C   C7        1.0  0.3182305209655276  0.7757258257115381  0.8654655754079948  1.0000
  C   C8        1.0  0.681769479189005  0.27572582570185367  0.6345344248643674  1.0000
  C   C9        1.0  0.7723137968167456  0.26103775200188184  0.09141345433721754  1.0000
  C   C10       1.0  0.2276862032459741  0.7610377520115663  0.4085865462217086  1.0000
  C   C11       1.0  0.22768620289436367  0.738962248017487  0.9085865460763931  1.0000
  C   C12       1.0  0.7723137972601689  0.2389622480078026  0.5914134541959691  1.0000
  C   C13       1.0  0.745139020271615  0.29003771729738675  0.980893349502991  1.0000
  C   C14       1.0  0.25486097988291756  0.7900377173070712  0.5191066507693713  1.0000
  C   C15       1.0  0.25486097916569966  0.709962282721982  0.019106650100701207  1.0000
  C   C16       1.0  0.7451390206232255  0.2099622827122977  0.4808933496483063  1.0000
  C   C17       1.0  0.8267295967582904  0.32549604400056564  0.9403477818969022  1.0000
  C   C18       1.0  0.17327040339624217  0.8254960440102501  0.55965221837546  1.0000
  C   C19       1.0  0.1732704037478526  0.6745039560188033  0.059652218520775444  1.0000
  C   C20       1.0  0.8267295963148672  0.1745039560091188  0.4403477820381506  1.0000
  C   C21       1.0  0.9407908714594262  0.3333615143172621  0.007563826964076475  1.0000
  C   C22       1.0  0.05920912912453267  0.8333615143269465  0.4924361727889981  1.0000
  C   C23       1.0  0.05920912877292221  0.6666384857021069  0.9924361726436827  1.0000
  C   C24       1.0  0.9407908713816103  0.16663848569242237  0.5075638276286796  1.0000
  C   C25       1.0  0.969065651835834  0.3032107821490102  0.11900314187695298  1.0000
  C   C26       1.0  0.03093434795309098  0.8032107821586946  0.38099685787205456  1.0000
  C   C27       1.0  0.0309343476014806  0.6967892178703586  0.8809968577267392  1.0000
  C   C28       1.0  0.9690656522792575  0.19678921786067427  0.6190031417357046  1.0000
  C   C29       1.0  0.8832224229703807  0.26768452670290455  0.15816894060382744  1.0000
  C   C30       1.0  0.11677757681854434  0.767684526712589  0.3418310591451801  1.0000
  C   C31       1.0  0.11677757646693393  0.7323154733164643  0.8418310589998647  1.0000
  C   C32       1.0  0.8832224234138041  0.2323154733067799  0.658168940462579  1.0000
  C   C33       1.0  0.08248687549054692  0.31462043013061247  0.18764378922291913  1.0000
  C   C34       1.0  0.9175131242983782  0.814620430140297  0.31235621052608836  1.0000
  C   C35       1.0  0.9175131247418014  0.6853795698887564  0.8123562103848398  1.0000
  C   C36       1.0  0.08248687541273114  0.18537956987907195  0.6876437898875223  1.0000
  C   C37       1.0  0.16292617512141624  0.3547989574110279  0.14900013866891904  1.0000
  C   C38       1.0  0.8370738246675088  0.8547989574207123  0.35099986108008846  1.0000
  C   C39       1.0  0.8370738245896929  0.645201042608341  0.8509998617446917  1.0000
  C   C40       1.0  0.16292617556483954  0.14520104259865652  0.6490001385276706  1.0000
  C   C41       1.0  0.134637499340438  0.384025437884875  0.038304144508462784  1.0000
  C   C42       1.0  0.8653625004484871  0.8840254378945595  0.46169585524054474  1.0000
  C   C43       1.0  0.8653625008919105  0.6159745621344939  0.9616958550992963  1.0000
  C   C44       1.0  0.1346374989888276  0.11597456212480944  0.5383041443631473  1.0000
  C   C45       1.0  0.025414528263382245  0.37301069484303884  0.9684713337041959  1.0000
  C   C46       1.0  0.9745854716173555  0.8730106948527233  0.5315286657582476  1.0000
  C   C47       1.0  0.9745854719689662  0.62698930517633  0.03152866590356314  1.0000
  C   C48       1.0  0.02541452781995894  0.1269893051666456  0.4684713338454444  1.0000
  C   C49       1.0  0.20159606971899524  0.4493380552528902  0.8991498706059398  1.0000
  C   C50       1.0  0.7984039301617427  0.9493380552625746  0.6008501288565039  1.0000
  C   C51       1.0  0.798403930513353  0.5506619447664787  0.10085012900181936  1.0000
  C   C52       1.0  0.20159606927557192  0.050661944756794246  0.39914987074718816  1.0000
  C   C53       1.0  0.31348405902099896  0.47442410873019253  0.8846308425746042  1.0000
  C   C54       1.0  0.6865159403384998  0.974424108739877  0.6153691576936909  1.0000
  C   C55       1.0  0.6865159404163156  0.5255758912891764  0.11536915702908786  1.0000
  C   C56       1.0  0.31348405937260937  0.025575891279491912  0.38463084271991965  1.0000
  C   C57       1.0  0.4025176854354458  0.389247352257768  0.9272365164064467  1.0000
  C   C58       1.0  0.5974823144452921  0.8892473522674524  0.572763483055997  1.0000
  C   C59       1.0  0.5974823147969025  0.6107526477616009  0.07276348320131244  1.0000
  C   C60       1.0  0.4025176857870563  0.11075264775191643  0.42723651655176215  1.0000
  C   C61       1.0  0.3649828083970581  0.28473540063416114  0.873430058329103  1.0000
  C   C62       1.0  0.6350171917574744  0.7847354006438456  0.6265699419432592  1.0000
  C   C63       1.0  0.6350171913140512  0.7152645993852077  0.12656994208450767  1.0000
  C   C64       1.0  0.36498280847487385  0.2152645993755233  0.37343005766449994  1.0000
  C   C65       1.0  0.4078082264970813  0.10526118102072102  0.9101689017168719  1.0000
  C   C66       1.0  0.5921917733836565  0.6052611810304055  0.5898310977455715  1.0000
  C   C67       1.0  0.592191773735267  0.8947388189986478  0.08983109789088706  1.0000
  C   C68       1.0  0.4078082268486918  0.3947388189889634  0.4101689018621875  1.0000
  C   C69       1.0  0.3431105960890048  0.05786123081325311  0.9664847323141024  1.0000
  C   C70       1.0  0.6568894032704939  0.5578612308229375  0.5335152679541926  1.0000
  C   C71       1.0  0.6568894033483099  0.9421387692061157  0.033515267289589576  1.0000
  C   C72       1.0  0.3431105964406152  0.44213876919643136  0.4664847324594179  1.0000
  C   C73       1.0  0.688618676208714  0.04685180240363557  0.04895455162852597  1.0000
  C   C74       1.0  0.3113813238540056  0.54685180241332  0.4510454489304001  1.0000
  C   C75       1.0  0.3113813242974288  0.9531481976157333  0.9510454487891515  1.0000
  C   C76       1.0  0.6886186758571037  0.45314819760604885  0.5489545514832105  1.0000
  C   C77       1.0  0.40480343528788154  0.9383614336591984  0.8177555802628674  1.0000
  C   C78       1.0  0.5951965645928564  0.438361433649514  0.6822444191995763  1.0000
  C   C79       1.0  0.5951965649444668  0.06163856636017042  0.18224441934489183  1.0000
  C   C80       1.0  0.40480343484445813  0.5616385663698549  0.3177555804041157  1.0000
  C   C81       1.0  0.4358881593315689  0.043016464235570234  0.8344229418485787  1.0000
  C   C82       1.0  0.5641118408229637  0.5430164642452547  0.6655770584237837  1.0000
  C   C83       1.0  0.5641118411745741  0.9569835357837987  0.16557705856909904  1.0000
  C   C84       1.0  0.4358881594093846  0.4569835357741142  0.33442294118397553  1.0000
  C   C85       1.0  0.9962651063933359  0.9988333416532565  0.04498974879741498  1.0000
  C   C86       1.0  0.0037348933955891335  0.49883334164357207  0.45501025095159253  1.0000
  C   C87       1.0  0.0037348930439787347  0.0011666583661123406  0.9550102508062771  1.0000
  C   C88       1.0  0.9962651068367593  0.5011666583757968  0.5449897486561666  1.0000
  O   O1        1.0  0.22222473502164414  0.42209267100692466  0.01052187874708069  1.0000
  O   O2        1.0  0.7777752650410754  0.9220926710166091  0.48947812181184536  1.0000
  O   O3        1.0  0.7777752646894651  0.5779073290124442  0.98947812166653  1.0000
  O   O4        1.0  0.22222473546506744  0.07790732900275979  0.5105218786058322  1.0000
  O   O5        1.0  0.4459138803017998  0.2059627564317088  0.9304598627990628  1.0000
  O   O6        1.0  0.554086119578938  0.7059627564413933  0.5695401366633808  1.0000
  O   O7        1.0  0.5540861199305485  0.79403724358766  0.06954013680869625  1.0000
  O   O8        1.0  0.44591388065341026  0.2940372435779756  0.43045986294437827  1.0000
  Cl  Cl1       1.0  0.984733442469501  0.9934976816366664  0.1645381011222574  1.0000
  Cl  Cl2       1.0  0.01526655731942411  0.49349768162698193  0.33546189862675013  1.0000
  Cl  Cl3       1.0  0.015266556967813694  0.006502318382702481  0.8354618984814347  1.0000
  Cl  Cl4       1.0  0.9847334421178905  0.5065023183923869  0.664538100976942  1.0000
  Br  Br1       1.0  0.519835262170091  0.10606455865964937  0.7538900189010677  1.0000
  Br  Br2       1.0  0.4801647379844416  0.6060645586693338  0.7461099813712947  1.0000
  Br  Br3       1.0  0.48016473754101824  0.8939354413597196  0.24610998151254304  1.0000
  Br  Br4       1.0  0.5198352625217013  0.3939354413500351  0.25389001904638303  1.0000
  Br  Br5       1.0  0.29791908657599536  0.13901981012651846  0.06684981762521766  1.0000
  Br  Br6       1.0  0.7020809132129298  0.6390198101362029  0.43315018212378986  1.0000
  Br  Br7       1.0  0.702080913656353  0.8609801898928505  0.9331501819825414  1.0000
  Br  Br8       1.0  0.2979190862243849  0.360980189883166  0.5668498174799022  1.0000
