data_image0
_chemical_formula_structural       H56C60N4O4
_chemical_formula_sum              "H56 C60 N4 O4"
_cell_length_a       26.561140438752556
_cell_length_b       5.339953651157053
_cell_length_c       7.805742352603343
_cell_angle_alpha    90.0
_cell_angle_beta     95.78667410972372
_cell_angle_gamma    90.0

_space_group_name_H-M_alt    "P 1"
_space_group_IT_number       1

loop_
  _space_group_symop_operation_xyz
  'x, y, z'

loop_
  _atom_site_type_symbol
  _atom_site_label
  _atom_site_symmetry_multiplicity
  _atom_site_fract_x
  _atom_site_fract_y
  _atom_site_fract_z
  _atom_site_occupancy
  H   H1        1.0  0.12841039088467168  0.2897105089413631  0.032137827350726116  1.0000
  H   H2        1.0  0.8715896092094223  0.7897105078966861  0.4678621719092208  1.0000
  H   H3        1.0  0.8715896091937125  0.7102894908419585  0.9678621723088604  1.0000
  H   H4        1.0  0.12841039086896194  0.21028949188663534  0.5321378277503657  1.0000
  H   H5        1.0  0.18196444312244173  0.8183248517621786  0.8230378096438978  1.0000
  H   H6        1.0  0.8180355569402328  0.31832485093418017  0.6769621904153282  1.0000
  H   H7        1.0  0.8180355569559425  0.18167514802114287  0.1769621900156887  1.0000
  H   H8        1.0  0.18196444314084706  0.6816751488491414  0.3230378105262588  1.0000
  H   H9        1.0  0.27086519393302555  0.8410682963562501  0.7727084742426693  1.0000
  H   H10       1.0  0.7291348057512402  0.3410682955282516  0.7272915256958566  1.0000
  H   H11       1.0  0.7291348057669501  0.1589317034270714  0.22729152529621707  1.0000
  H   H12       1.0  0.27086519395143094  0.6589317042550699  0.2727084751250302  1.0000
  H   H13       1.0  0.29877986116619976  0.14830527786105463  0.05233908503708403  1.0000
  H   H14       1.0  0.7012201385521812  0.6483052786890531  0.44766091538416325  1.0000
  H   H15       1.0  0.701220138533776  0.8516947219222669  0.9476609145018023  1.0000
  H   H16       1.0  0.29877986115049  0.3516947210942684  0.5523390854367236  1.0000
  H   H17       1.0  0.21035544076125373  0.12932498577967322  0.10441104694236117  1.0000
  H   H18       1.0  0.7896445593328402  0.6293249866076717  0.39558895231758584  1.0000
  H   H19       1.0  0.7896445593171304  0.8706750140036482  0.8955889527172254  1.0000
  H   H20       1.0  0.210355440745544  0.3706750131756498  0.6044110473420007  1.0000
  H   H21       1.0  0.34076155324057195  0.8376135435240784  0.7146773715111733  1.0000
  H   H22       1.0  0.6592384464436939  0.3376135445687554  0.7853226284273527  1.0000
  H   H23       1.0  0.6592384464594038  0.16238645625924303  0.2853226280277131  1.0000
  H   H24       1.0  0.3407615532589772  0.6623864552145661  0.21467737239353418  1.0000
  H   H25       1.0  0.429092984988949  0.8466504609118434  0.6568545889416365  1.0000
  H   H26       1.0  0.5709070150737255  0.3466504600838449  0.8431454111175896  1.0000
  H   H27       1.0  0.5709070150921308  0.1533495388714781  0.3431454119999505  1.0000
  H   H28       1.0  0.42909298500465864  0.6533495396994765  0.15685458854199694  1.0000
  H   H29       1.0  0.48971776575298687  0.5203098718652687  0.780262910139018  1.0000
  H   H30       1.0  0.5102822343096876  0.02030987290994565  0.719737089920208  1.0000
  H   H31       1.0  0.5102822343253973  0.47969012791805277  0.21973708952056842  1.0000
  H   H32       1.0  0.4897177657713922  0.9796901287460513  0.280262911021379  1.0000
  H   H33       1.0  0.4578735060517109  0.17736196264452272  0.9588300242863237  1.0000
  H   H34       1.0  0.5421264940109636  0.6773619634725212  0.5411699757729024  1.0000
  H   H35       1.0  0.5421264940266733  0.8226380371387988  0.041169975373262904  1.0000
  H   H36       1.0  0.4578735060701162  0.3226380363108003  0.4588300251686846  1.0000
  H   H37       1.0  0.36975185563337326  0.16444928315243398  0.017041056530849086  1.0000
  H   H38       1.0  0.6302481444634163  0.6644492839804325  0.48295894401109835  1.0000
  H   H39       1.0  0.6302481444477065  0.8355507166308874  0.982958944410738  1.0000
  H   H40       1.0  0.36975185561496793  0.33555071580288903  0.5170410556484882  1.0000
  H   H41       1.0  0.11277156604685805  0.44934234953145835  0.7371152670629201  1.0000
  H   H42       1.0  0.8872284340158163  0.9493423503594568  0.7628847329963059  1.0000
  H   H43       1.0  0.8872284340315261  0.5506576502518631  0.26288473259666634  1.0000
  H   H44       1.0  0.11277156606526337  0.050657649423864644  0.2371152679452811  1.0000
  H   H45       1.0  0.12329117845777314  0.6269777733510016  0.5700234219731573  1.0000
  H   H46       1.0  0.8767088212264927  0.12697777252300307  0.9299765779653687  1.0000
  H   H47       1.0  0.8767088212422025  0.37302222643231997  0.4299765775657292  1.0000
  H   H48       1.0  0.12329117847617845  0.8730222272603184  0.07002342285551813  1.0000
  H   H49       1.0  0.03260898211503493  0.16254076846002805  0.700522760616913  1.0000
  H   H50       1.0  0.9673910179476396  0.6625407674153511  0.7994772394423132  1.0000
  H   H51       1.0  0.9673910179633493  0.8374592313232935  0.2994772390426736  1.0000
  H   H52       1.0  0.03260898213074466  0.33745923236797043  0.20052276021727336  1.0000
  H   H53       1.0  0.05842678399896196  0.814605941206523  0.39658133926409944  1.0000
  H   H54       1.0  0.941573215719419  0.31460594037852446  0.10341866115714786  1.0000
  H   H55       1.0  0.9415732157010136  0.18539406044947399  0.603418660274787  1.0000
  H   H56       1.0  0.058426783983252226  0.6853940594047969  0.896581339663739  1.0000
  C   C1        1.0  0.18935576044667135  0.46948374157831546  0.9634488741346197  1.0000
  C   C2        1.0  0.8106442396160031  0.9694837424063139  0.5365511259246064  1.0000
  C   C3        1.0  0.8106442396344083  0.530516258205006  0.03655112680696731  1.0000
  C   C4        1.0  0.18935576046238112  0.030516257377007583  0.4634488737349801  1.0000
  C   C5        1.0  0.2077778077208344  0.6706442778251509  0.8728942518903201  1.0000
  C   C6        1.0  0.79222219234184  0.1706442769971525  0.627105748168906  1.0000
  C   C7        1.0  0.7922221923575499  0.329355723830846  0.12710574776926636  1.0000
  C   C8        1.0  0.20777780773654417  0.8293557227861689  0.3728942514906806  1.0000
  C   C9        1.0  0.2586867672909272  0.6819442148549275  0.8452490952227395  1.0000
  C   C10       1.0  0.7413132327690518  0.18194421589960447  0.6547509035544862  1.0000
  C   C11       1.0  0.741313232787457  0.31805578492839404  0.154750904436847  1.0000
  C   C12       1.0  0.2586867673093325  0.8180557857563925  0.34524909610510046  1.0000
  C   C13       1.0  0.2931958800930396  0.4942637094664877  0.9059249560388988  1.0000
  C   C14       1.0  0.7068041195912262  0.9942637102944861  0.5940750438996272  1.0000
  C   C15       1.0  0.7068041196096316  0.5057362903168338  0.09407504478198815  1.0000
  C   C16       1.0  0.2931958801087493  0.005736289488835321  0.4059249556392591  1.0000
  C   C17       1.0  0.27393847778636676  0.2977350261561736  0.00020939314637766026  1.0000
  C   C18       1.0  0.726061521932014  0.797735026984172  0.49979060727486957  1.0000
  C   C19       1.0  0.7260615219136088  0.7022649736271479  0.9997906063925088  1.0000
  C   C20       1.0  0.273938477770657  0.20226497467182483  0.5002093935460172  1.0000
  C   C21       1.0  0.22324674691749455  0.28463790311563075  0.02972385804255489  1.0000
  C   C22       1.0  0.7767532531765994  0.7846379020709539  0.47027614121739214  1.0000
  C   C23       1.0  0.7767532531608896  0.7153620966676907  0.9702761416170317  1.0000
  C   C24       1.0  0.2232467469017848  0.21536209771236772  0.5297238584421944  1.0000
  C   C25       1.0  0.34704893966991407  0.5005836688153273  0.8711897760616644  1.0000
  C   C26       1.0  0.6529510603927604  0.0005836679873288161  0.6288102239975618  1.0000
  C   C27       1.0  0.6529510604111657  0.4994163309679942  0.12881022487992266  1.0000
  C   C28       1.0  0.3470489396856238  0.9994163317959927  0.37118977566202477  1.0000
  C   C29       1.0  0.3657599319392258  0.6909587088270932  0.7700674348831373  1.0000
  C   C30       1.0  0.63424006774504  0.19095870987177027  0.7299325650553886  1.0000
  C   C31       1.0  0.6342400677607498  0.30904129095622823  0.2299325646557491  1.0000
  C   C32       1.0  0.36575993195763107  0.8090412899115511  0.2700674357654982  1.0000
  C   C33       1.0  0.4163485960124544  0.6973665078896536  0.737065026524546  1.0000
  C   C34       1.0  0.5836514040502201  0.19736650706165518  0.7629349735346801  1.0000
  C   C35       1.0  0.5836514040659297  0.30263349189366784  0.2629349731350406  1.0000
  C   C36       1.0  0.4163485960308597  0.8026334927216663  0.23706502740690685  1.0000
  C   C37       1.0  0.4500845574812357  0.513910041036663  0.8047616970347554  1.0000
  C   C38       1.0  0.5499154425814388  0.013910042081340038  0.6952383030244706  1.0000
  C   C39       1.0  0.5499154425971485  0.48608995874665845  0.1952383026248312  1.0000
  C   C40       1.0  0.4500845574969454  0.9860899595746568  0.3047616966351158  1.0000
  C   C41       1.0  0.4322464222664056  0.32258423996372193  0.9044631094980772  1.0000
  C   C42       1.0  0.5677535777962689  0.822584238919045  0.5955368905611489  1.0000
  C   C43       1.0  0.5677535778146742  0.677415761692275  0.09553689144350981  1.0000
  C   C44       1.0  0.43224642228211535  0.17741576086427652  0.40446310909843763  1.0000
  C   C45       1.0  0.3816374963557783  0.3159312383983802  0.9370682699342558  1.0000
  C   C46       1.0  0.6183625037068963  0.8159312392263787  0.5629317301249701  1.0000
  C   C47       1.0  0.6183625037226059  0.6840687613849412  0.06293172972533055  1.0000
  C   C48       1.0  0.38163749637418365  0.1840687605569428  0.4370682708166169  1.0000
  C   C49       1.0  0.052103125738369394  0.48734827491173305  0.5546506223818615  1.0000
  C   C50       1.0  0.9478968743243051  0.987348273867056  0.9453493776773646  1.0000
  C   C51       1.0  0.9478968743427104  0.5126517267442638  0.4453493785597254  1.0000
  C   C52       1.0  0.05210312575407913  0.012651725916265448  0.054650621982221995  1.0000
  C   C53       1.0  0.018673773008153375  0.31176214416004805  0.6129217870143215  1.0000
  C   C54       1.0  0.981326227054521  0.8117621449880463  0.8870782130449045  1.0000
  C   C55       1.0  0.9813262266918221  0.6882378556232734  0.38707821252456487  1.0000
  C   C56       1.0  0.01867377302386311  0.188237854795275  0.11292178661468194  1.0000
  C   C57       1.0  0.032853966030576734  0.6752084578896574  0.44127853141165657  1.0000
  C   C58       1.0  0.9671460340635172  0.17520845706165905  0.058721467848290416  1.0000
  C   C59       1.0  0.9671460340478075  0.324791541893664  0.55872146824793  1.0000
  C   C60       1.0  0.032853966014867  0.8247915427216626  0.9412785318112962  1.0000
  N   N1        1.0  0.10513692864485116  0.46908157142098933  0.6056738693630669  1.0000
  N   N2        1.0  0.8948630714178233  0.9690815722489877  0.8943261306961593  1.0000
  N   N3        1.0  0.8948630714362287  0.5309184283623322  0.3943261315785201  1.0000
  N   N4        1.0  0.1051369286605609  0.030918427534333697  0.10567386896342738  1.0000
  O   O1        1.0  0.1386368039575329  0.46068641053971715  0.9825868411386901  1.0000
  O   O2        1.0  0.8613631957240375  0.9606864113677156  0.5174131575178353  1.0000
  O   O3        1.0  0.8613631957424427  0.5393135892436043  0.017413158400196284  1.0000
  O   O4        1.0  0.13863680397593817  0.03931359028828126  0.48258684202105095  1.0000
