data_image0
_chemical_formula_structural       H50C46N10O18
_chemical_formula_sum              "H50 C46 N10 O18"
_cell_length_a       8.052586465233667
_cell_length_b       8.52845955917154
_cell_length_c       19.026378462840015
_cell_angle_alpha    84.71881149852248
_cell_angle_beta     79.6124054646228
_cell_angle_gamma    62.13803436654133

_space_group_name_H-M_alt    "P 1"
_space_group_IT_number       1

loop_
  _space_group_symop_operation_xyz
  'x, y, z'

loop_
  _atom_site_type_symbol
  _atom_site_label
  _atom_site_symmetry_multiplicity
  _atom_site_fract_x
  _atom_site_fract_y
  _atom_site_fract_z
  _atom_site_occupancy
  H   H1        1.0  0.450092145849542  0.19692985696993345  0.21001462995917766  1.0000
  H   H2        1.0  0.5499081651944796  0.8030699110843023  0.7899853728754828  1.0000
  H   H3        1.0  0.5078214785261937  0.7001968248514883  0.2751296878435346  1.0000
  H   H4        1.0  0.49217976639823735  0.299802660780825  0.7248706688260151  1.0000
  H   H5        1.0  0.9721148315146817  0.7517467722810659  0.15368835049542104  1.0000
  H   H6        1.0  0.027885864880719105  0.2482538773533632  0.84631175218726  1.0000
  H   H7        1.0  0.9322009128574792  0.04632439386917097  0.12118265966406078  1.0000
  H   H8        1.0  0.06779952657611399  0.9536759137345832  0.8788173822387999  1.0000
  H   H9        1.0  0.7686685479922991  0.2113390657992903  0.18526720267278202  1.0000
  H   H10       1.0  0.2313318368347071  0.7886613029123516  0.8147326657681188  1.0000
  H   H11       1.0  0.6982533675349889  0.19199480347456288  0.10416405927194598  1.0000
  H   H12       1.0  0.30174769063806106  0.8080056462907326  0.8958357900438776  1.0000
  H   H13       1.0  0.11964212215115992  0.024063612414829773  0.3820679427635877  1.0000
  H   H14       1.0  0.8803557606620663  0.9759381190454118  0.6179314531562969  1.0000
  H   H15       1.0  0.31775254998229446  0.8221732905076184  0.3547578882947554  1.0000
  H   H16       1.0  0.6822462177003515  0.17782756914323394  0.645242636301295  1.0000
  H   H17       1.0  0.020695235270907972  0.8070199535443149  0.345787496296667  1.0000
  H   H18       1.0  0.9793052648341422  0.19298015334600468  0.6542119350485193  1.0000
  H   H19       1.0  0.1439807754540698  0.8024943206619093  0.2579902574501672  1.0000
  H   H20       1.0  0.8560199737415443  0.19750516989223393  0.7420094038362451  1.0000
  H   H21       1.0  0.9410399318111672  0.00046721286022284776  0.29193704014914057  1.0000
  H   H22       1.0  0.058960202734196734  0.9995318047992924  0.7080623558769532  1.0000
  H   H23       1.0  0.0021752624933533134  0.23313309755981412  0.27423444399632135  1.0000
  H   H24       1.0  0.9978250914410761  0.7668666678732053  0.7257655714722298  1.0000
  H   H25       1.0  0.18172124604177295  0.2692725975949268  0.22133358343596937  1.0000
  H   H26       1.0  0.8182792281892923  0.7307271348049703  0.7786662887216842  1.0000
  H   H27       1.0  0.031237184690335037  0.47889752590601226  0.3234460425478781  1.0000
  H   H28       1.0  0.968763378839645  0.5211024852537375  0.6765537233536427  1.0000
  H   H29       1.0  0.27064672336414963  0.33114564641063654  0.3347497986592135  1.0000
  H   H30       1.0  0.7293540469030417  0.6688544372555612  0.6652499548619358  1.0000
  H   H31       1.0  0.08073932855209524  0.29977453503572216  0.385907733209704  1.0000
  H   H32       1.0  0.919261365737507  0.7002256375479676  0.614092202068418  1.0000
  H   H33       1.0  0.6064626456638212  0.05456357813002001  0.3744295194986582  1.0000
  H   H34       1.0  0.39353809067596285  0.9454370804304979  0.6255705429959981  1.0000
  H   H35       1.0  0.7386860703170772  0.1949103288139683  0.4550338799565859  1.0000
  H   H36       1.0  0.26131539100757056  0.8050889527523427  0.5449661640895456  1.0000
  H   H37       1.0  0.8570246245845774  0.29339612077346156  0.5475300797931093  1.0000
  H   H38       1.0  0.14297686913688448  0.706604086050624  0.45246962223643744  1.0000
  H   H39       1.0  0.8202767600948819  0.6049387634490607  0.5388982765214734  1.0000
  H   H40       1.0  0.1797247680412666  0.39506053051069134  0.46110184446732594  1.0000
  H   H41       1.0  0.41593341197080386  0.47731817055430226  0.25172464054454025  1.0000
  H   H42       1.0  0.5840666713174268  0.522680453569354  0.7482743985431761  1.0000
  H   H43       1.0  0.31401594043937736  0.8771575562292783  0.11811246684381832  1.0000
  H   H44       1.0  0.6859849665007663  0.12284154458666799  0.8818864919920547  1.0000
  H   H45       1.0  0.2601308892931471  0.7038887192005846  0.02117522929650221  1.0000
  H   H46       1.0  0.73987749913248  0.2961084186120858  0.9788250390442765  1.0000
  H   H47       1.0  0.2058047340840944  0.5760020429169775  0.9172388896253524  1.0000
  H   H48       1.0  0.7941981548153526  0.4239984259921399  0.0827619504323051  1.0000
  H   H49       1.0  0.21998206508150756  0.27513894367883135  0.9323512147669925  1.0000
  H   H50       1.0  0.780016154868454  0.7248642328347361  0.06764883803682713  1.0000
  C   C1        1.0  0.4507862456208885  0.9611562991123961  0.24942348599554934  1.0000
  C   C2        1.0  0.5492152312451755  0.038843184172170614  0.750576595691003  1.0000
  C   C3        1.0  0.7155241715506834  0.9891267155269181  0.18028871843103716  1.0000
  C   C4        1.0  0.2844762173406285  0.01087377739055777  0.8197112795529901  1.0000
  C   C5        1.0  0.8256568939893955  0.8098134537983086  0.1800370616861472  1.0000
  C   C6        1.0  0.17434362216771487  0.19018712208636032  0.8199628884923511  1.0000
  C   C7        1.0  0.7474964215353248  0.6947486338660803  0.2123176363076457  1.0000
  C   C8        1.0  0.2525043459052689  0.3052517904367758  0.7876822980888639  1.0000
  C   C9        1.0  0.7834408865626252  0.11717576354079227  0.145938481581503  1.0000
  C   C10       1.0  0.2165595732678033  0.8828246677913358  0.854061446352715  1.0000
  C   C11       1.0  0.1978485734855345  0.9370573632740538  0.3357048572670555  1.0000
  C   C12       1.0  0.8021508159362774  0.06294323015431573  0.6642947290677882  1.0000
  C   C13       1.0  0.06856992506993138  0.8841825098988554  0.3056029448825345  1.0000
  C   C14       1.0  0.9314304059198979  0.11581734922485928  0.6943966463315474  1.0000
  C   C15       1.0  0.14205761629227784  0.22479489914880704  0.2746129476928859  1.0000
  C   C16       1.0  0.857942402991902  0.775205249518101  0.7253870259809938  1.0000
  C   C17       1.0  0.13103894903154648  0.34035738918051517  0.3333733747644452  1.0000
  C   C18       1.0  0.8689616891609864  0.6596426490703593  0.6666264857887337  1.0000
  C   C19       1.0  0.5649430414916591  0.3965651246248544  0.3450644126156918  1.0000
  C   C20       1.0  0.4350573582438558  0.6034349715451791  0.6549358897892394  1.0000
  C   C21       1.0  0.6402031651093035  0.45003759511895003  0.40082998261385555  1.0000
  C   C22       1.0  0.35979771308981123  0.5499628086678727  0.5991697056510947  1.0000
  C   C23       1.0  0.7259529807112144  0.32826965105402045  0.4539577122700201  1.0000
  C   C24       1.0  0.27404908253963645  0.6717308191332766  0.5460420491290053  1.0000
  C   C25       1.0  0.7905890609315034  0.38372502344901516  0.5051932856011526  1.0000
  C   C26       1.0  0.20941307895906924  0.6162749458028024  0.49480595760467266  1.0000
  C   C27       1.0  0.7719048598560942  0.5551673021704925  0.500516757924746  1.0000
  C   C28       1.0  0.22809709140709583  0.4448333911555246  0.49948358911357404  1.0000
  C   C29       1.0  0.6889996172386778  0.6656172507839485  0.44430161165928367  1.0000
  C   C30       1.0  0.3110022770689527  0.33438274969599935  0.5556984098604626  1.0000
  C   C31       1.0  0.6808836310843225  0.8466976111890888  0.4361322609184882  1.0000
  C   C32       1.0  0.3191178586522088  0.1533029079902388  0.5638679233752619  1.0000
  C   C33       1.0  0.3398825613739393  0.5391126933030469  0.1495580565188075  1.0000
  C   C34       1.0  0.660116770968578  0.46088554832832473  0.8504429044826195  1.0000
  C   C35       1.0  0.3018249081709351  0.47124817264473706  0.08715218296752987  1.0000
  C   C36       1.0  0.6981787014157608  0.5287508866727612  0.9128483486362672  1.0000
  C   C37       1.0  0.26433025390686493  0.5736252262437688  0.02444109227647252  1.0000
  C   C38       1.0  0.7356745230614584  0.4263727791014693  0.9755596381980581  1.0000
  C   C39       1.0  0.234575102903618  0.5031468249161152  0.9674040287502039  1.0000
  C   C40       1.0  0.7654279408815974  0.4968521093171135  0.03259650360841374  1.0000
  C   C41       1.0  0.24178514605780452  0.33622208027120465  0.9752140155297687  1.0000
  C   C42       1.0  0.7582150121320214  0.6637778189598308  0.024786313956346236  1.0000
  C   C43       1.0  0.27694584939592115  0.24590093611098673  0.04040715104210424  1.0000
  C   C44       1.0  0.7230561490798341  0.7540982034953241  0.9595928000084452  1.0000
  C   C45       1.0  0.28107341680683906  0.06720601521254106  0.0496720981573025  1.0000
  C   C46       1.0  0.71892873146969  0.9327927225069359  0.9503274816245758  1.0000
  N   N1        1.0  0.2730422813505752  0.03637494913254878  0.2841591318045074  1.0000
  N   N2        1.0  0.7269575802582456  0.9636251866604012  0.7158404995644108  1.0000
  N   N3        1.0  0.5301021573960284  0.06113247171245897  0.21369090544318756  1.0000
  N   N4        1.0  0.46989840897218266  0.93886721293086  0.7863091609531105  1.0000
  N   N5        1.0  0.5594999266170035  0.7834839016112812  0.24784486336159914  1.0000
  N   N6        1.0  0.44050098664673526  0.2165158285747558  0.752155337813289  1.0000
  N   N7        1.0  0.6212810264034956  0.6152682679977618  0.39605373403131916  1.0000
  N   N8        1.0  0.3787206370654594  0.3847324582814629  0.6039463490445204  1.0000
  N   N9        1.0  0.3071865619665406  0.3113899946878577  0.09537938383431864  1.0000
  N   N10       1.0  0.6928157351131338  0.6886082164903147  0.9046209043029734  1.0000
  O   O1        1.0  0.8290559410710509  0.5302091290158444  0.2101768281503667  1.0000
  O   O2        1.0  0.17094499639150953  0.46979103281287327  0.7898229535856373  1.0000
  O   O3        1.0  0.45892233630287954  0.523546718206622  0.30587877924606605  1.0000
  O   O4        1.0  0.5410778146927945  0.4764542723273123  0.6941214318118234  1.0000
  O   O5        1.0  0.6062514870929964  0.2370313550952537  0.3388624098277948  1.0000
  O   O6        1.0  0.39374835339828645  0.7629693075599386  0.6611380340297269  1.0000
  O   O7        1.0  0.5988080939907466  0.9393637372716658  0.3809722908175769  1.0000
  O   O8        1.0  0.4011933169571136  0.06063650865009831  0.6190278478618058  1.0000
  O   O9        1.0  0.7496722242263483  0.8986095340107373  0.4759630670365758  1.0000
  O   O10       1.0  0.25032877621650107  0.10139157458036212  0.5240371452342054  1.0000
  O   O11       1.0  0.380276842851559  0.4308245289834739  0.20418411601867467  1.0000
  O   O12       1.0  0.6197252654070224  0.5691750468154968  0.795815874074576  1.0000
  O   O13       1.0  0.3317012256890648  0.6885410528910736  0.14838385591084036  1.0000
  O   O14       1.0  0.6682925065525446  0.31146353343636357  0.8516179596959034  1.0000
  O   O15       1.0  0.30947669105716313  0.9975582781232007  0.11463068257921276  1.0000
  O   O16       1.0  0.6905275181092927  0.0024391318919983087  0.8853689984873645  1.0000
  O   O17       1.0  0.2592369585549723  0.9948186936104709  0.0014901753235694462  1.0000
  O   O18       1.0  0.740762021624265  0.005181902497696942  0.9985091517269208  1.0000
