data_image0
_chemical_formula_structural       H18C18N2O2Cl2
_chemical_formula_sum              "H18 C18 N2 O2 Cl2"
_cell_length_a       4.329451179030952
_cell_length_b       8.661291385409832
_cell_length_c       11.873035080230279
_cell_angle_alpha    69.8544760206575
_cell_angle_beta     87.77264461282608
_cell_angle_gamma    82.67168904681556

_space_group_name_H-M_alt    "P 1"
_space_group_IT_number       1

loop_
  _space_group_symop_operation_xyz
  'x, y, z'

loop_
  _atom_site_type_symbol
  _atom_site_label
  _atom_site_symmetry_multiplicity
  _atom_site_fract_x
  _atom_site_fract_y
  _atom_site_fract_z
  _atom_site_occupancy
  H   H1        1.0  0.1498806834529525  0.17523364022141147  0.9956385145103733  1.0000
  H   H2        1.0  0.8501193145704143  0.8247663591195337  0.004361485554454347  1.0000
  H   H3        1.0  0.06543517941018188  0.31982797643482935  0.8613013205358613  1.0000
  H   H4        1.0  0.9345648209299402  0.6801720233264279  0.13869867863943802  1.0000
  H   H5        1.0  0.311924567751028  0.5808439946571449  0.7899680934149523  1.0000
  H   H6        1.0  0.688075432581253  0.4191560046835942  0.21003190665745364  1.0000
  H   H7        1.0  0.4300018281742354  0.22286239851106904  0.14656691890130544  1.0000
  H   H8        1.0  0.5699981721580458  0.77713760082967  0.8534330811711003  1.0000
  H   H9        1.0  0.5228388253279684  0.14953225316419613  0.8879108863112474  1.0000
  H   H10       1.0  0.4771611726953983  0.8504677461767491  0.11208911375358008  1.0000
  H   H11       1.0  0.12627481487975428  0.90227062966656  0.7906784687316858  1.0000
  H   H12       1.0  0.8737251854525268  0.09772936967417893  0.20932153134071996  1.0000
  H   H13       1.0  0.33984760381322787  0.9895422373681513  0.5836176766843655  1.0000
  H   H14       1.0  0.6601523962153276  0.010457763138053645  0.4163823233850679  1.0000
  H   H15       1.0  0.7319289839399632  0.4481519159907739  0.49479404050880493  1.0000
  H   H16       1.0  0.26807101639231784  0.551848083349965  0.5052059595636009  1.0000
  H   H17       1.0  0.5184448867411261  0.36178526838000746  0.7015171839473385  1.0000
  H   H18       1.0  0.4815551132874294  0.6382147321261973  0.2984828161220948  1.0000
  C   C1        1.0  0.3567120604326859  0.38689835258347627  0.9640053361495186  1.0000
  C   C2        1.0  0.6432879375906807  0.6131016467574689  0.03599466391530905  1.0000
  C   C3        1.0  0.3957971845169283  0.5442186725424193  0.8820769344197342  1.0000
  C   C4        1.0  0.6042028158153526  0.45578132679831984  0.1179230656526716  1.0000
  C   C5        1.0  0.46193123299651284  0.34446370556918127  0.08215832883762061  1.0000
  C   C6        1.0  0.5380687673357681  0.6555362937715578  0.9178416712347853  1.0000
  C   C7        1.0  0.81067129597231  0.12523648412275504  0.7600982260349509  1.0000
  C   C8        1.0  0.18932870405624544  0.8747635163834496  0.2399017740344823  1.0000
  C   C9        1.0  0.04153604521951219  0.02198031671814993  0.725209831615498  1.0000
  C   C10       1.0  0.9584639551206101  0.9780196830431073  0.27479016755980123  1.0000
  C   C11       1.0  0.15973773566155047  0.07061301824440178  0.6092984573850196  1.0000
  C   C12       1.0  0.8402622646707305  0.9293869810963371  0.39070154268738616  1.0000
  C   C13       1.0  0.04456979546975149  0.2240943284223429  0.5270500209211879  1.0000
  C   C14       1.0  0.9554302045588041  0.775905672083862  0.4729499791482453  1.0000
  C   C15       1.0  0.8161160696076954  0.3285585543681688  0.5601438040596962  1.0000
  C   C16       1.0  0.18388393072458553  0.6714414449725701  0.4398561960127096  1.0000
  C   C17       1.0  0.6990636624885589  0.28000041941384757  0.6765108496464276  1.0000
  C   C18       1.0  0.3009363378437223  0.7199995799268915  0.3234891504259782  1.0000
  N   N1        1.0  0.23173530179208562  0.26881507897628953  0.9265617215416081  1.0000
  N   N2        1.0  0.7682646982443109  0.7311849219504334  0.07343827763071863  1.0000
  O   O1        1.0  0.7060335640313776  0.07017533077599135  0.8748444377499341  1.0000
  O   O2        1.0  0.2939664359971779  0.9298246697302133  0.12515556231949912  1.0000
  Cl  Cl1       1.0  0.1893980237458341  0.28798100397941645  0.3816278234865924  1.0000
  Cl  Cl2       1.0  0.810601976586447  0.7120189953613224  0.6183721765858134  1.0000
