data_image0
_chemical_formula_structural       H40C92F22P2Br2I6
_chemical_formula_sum              "H40 C92 F22 P2 Br2 I6"
_cell_length_a       11.879213135506172
_cell_length_b       12.039047019828326
_cell_length_c       16.10471081398854
_cell_angle_alpha    89.78649405147908
_cell_angle_beta     74.0316529265187
_cell_angle_gamma    70.38631918915183

_space_group_name_H-M_alt    "P 1"
_space_group_IT_number       1

loop_
  _space_group_symop_operation_xyz
  'x, y, z'

loop_
  _atom_site_type_symbol
  _atom_site_label
  _atom_site_symmetry_multiplicity
  _atom_site_fract_x
  _atom_site_fract_y
  _atom_site_fract_z
  _atom_site_occupancy
  H   H1        1.0  0.8620705807948266  0.270486393082895  0.6413518828065745  1.0000
  H   H2        1.0  0.13792941955402988  0.7295136065227521  0.3586481169912489  1.0000
  H   H3        1.0  0.07289544307976253  0.16570031922480183  0.6580668871652973  1.0000
  H   H4        1.0  0.9271045572690939  0.8342996803808451  0.34193311263252607  1.0000
  H   H5        1.0  0.26181163857305256  0.15378440200057916  0.5402427465751201  1.0000
  H   H6        1.0  0.7381883617758037  0.8462155976050679  0.4597572532227033  1.0000
  H   H7        1.0  0.24282503705669567  0.2392100681903143  0.40152241149246004  1.0000
  H   H8        1.0  0.7571749629990564  0.7607899322971902  0.5984775883060768  1.0000
  H   H9        1.0  0.034093050053031544  0.3521037714851728  0.3857787258542455  1.0000
  H   H10       1.0  0.9659069500263057  0.6478962282061935  0.6142212745925483  1.0000
  H   H11       1.0  0.8847404525093668  0.5694551134792055  0.4170729545450877  1.0000
  H   H12       1.0  0.11525954670151313  0.43054488701597493  0.5829270452547531  1.0000
  H   H13       1.0  0.8902589798184588  0.6465005053943299  0.27336188434947833  1.0000
  H   H14       1.0  0.10974102023729318  0.3534994950931746  0.7266381154490585  1.0000
  H   H15       1.0  0.7930123001595588  0.5758209440766688  0.17627830004301404  1.0000
  H   H16       1.0  0.20698769962667365  0.42417905649655496  0.8237217004044932  1.0000
  H   H17       1.0  0.6863551292137287  0.43048995143701163  0.2235585329430087  1.0000
  H   H18       1.0  0.3136448699971513  0.5695100490581688  0.7764414668568322  1.0000
  H   H19       1.0  0.6826125294428205  0.3505483954353643  0.3656127404120773  1.0000
  H   H20       1.0  0.31738747061293154  0.6494516050521403  0.6343872593864596  1.0000
  H   H21       1.0  0.847615667917877  0.16694538370628348  0.4252777546234174  1.0000
  H   H22       1.0  0.15238433213787506  0.833054616781221  0.5747222451751195  1.0000
  H   H23       1.0  0.7380182616853118  0.023159538998470775  0.4434931466158101  1.0000
  H   H24       1.0  0.2619817381009207  0.976840461574753  0.5565068538316973  1.0000
  H   H25       1.0  0.530304016119641  0.06937952062696677  0.5556752615440759  1.0000
  H   H26       1.0  0.4696959842292155  0.9306204789786803  0.4443247382537476  1.0000
  H   H27       1.0  0.43018476108085574  0.2630915678863181  0.6430183696644203  1.0000
  H   H28       1.0  0.5698152392680006  0.736908431719329  0.35698163013340317  1.0000
  H   H29       1.0  0.5382165972825783  0.4106829773412581  0.6249112927002284  1.0000
  H   H30       1.0  0.46178340306627796  0.589317022264389  0.37508870709759506  1.0000
  H   H31       1.0  0.5722959068340535  0.6081223936779374  0.5088071375702935  1.0000
  H   H32       1.0  0.4277040932452835  0.39187760601342886  0.4911928628765003  1.0000
  H   H33       1.0  0.45070251171768  0.7857103210900387  0.6149500720343923  1.0000
  H   H34       1.0  0.5492974886311766  0.21428967851560826  0.38504992776343083  1.0000
  H   H35       1.0  0.508777267961355  0.8069517276572618  0.7480508834779402  1.0000
  H   H36       1.0  0.49122273209439676  0.19304827283024273  0.25194911632059663  1.0000
  H   H37       1.0  0.6903565084448877  0.6505975361073337  0.776841590368879  1.0000
  H   H38       1.0  0.30964349190396856  0.3494024634983134  0.22315840942894433  1.0000
  H   H39       1.0  0.8139012658307829  0.47365019036049977  0.6716272818614414  1.0000
  H   H40       1.0  0.1860987345180735  0.5263498092451473  0.328372717936382  1.0000
  C   C1        1.0  0.9553045090999348  0.21751356815063339  0.13074793279784203  1.0000
  C   C2        1.0  0.044695491248921713  0.7824864314550137  0.8692520669999814  1.0000
  C   C3        1.0  0.015146179488207536  0.27239245539101464  0.17056599823018945  1.0000
  C   C4        1.0  0.9848538205675444  0.72760754509649  0.8294340015683475  1.0000
  C   C5        1.0  0.07988245578932436  0.34263809600021583  0.12638549970376728  1.0000
  C   C6        1.0  0.92011754371466  0.6573619036131071  0.8736145000953601  1.0000
  C   C7        1.0  0.0872796347628718  0.35724629937496943  0.03936234482546946  1.0000
  C   C8        1.0  0.9127203655859848  0.6427537002306776  0.9606376549723539  1.0000
  C   C9        1.0  0.02921448416954783  0.30166544344367235  0.9980621092800669  1.0000
  C   C10       1.0  0.9707855159097892  0.6983345562476939  0.0019378911667268534  1.0000
  C   C11       1.0  0.9628608817915896  0.23102553041182794  0.04192639327052072  1.0000
  C   C12       1.0  0.037139118264162455  0.7689744700756765  0.9580736065280161  1.0000
  C   C13       1.0  0.9083055316034192  0.17538772382556528  0.9957487081998635  1.0000
  C   C14       1.0  0.09169446818281334  0.8246122767476586  0.00425129224764382  1.0000
  C   C15       1.0  0.8632176799927461  0.12826904428466426  0.9532229180388201  1.0000
  C   C16       1.0  0.13678231979348637  0.8717309562885597  0.0467770824086873  1.0000
  C   C17       1.0  0.8117235477058801  0.07090295959367136  0.9057044060064889  1.0000
  C   C18       1.0  0.18827645264297627  0.9290970400119758  0.09429559379133441  1.0000
  C   C19       1.0  0.8281651000457517  0.08333827508453165  0.8166337366868719  1.0000
  C   C20       1.0  0.17183490030310467  0.9166617245211154  0.18336626311095156  1.0000
  C   C21       1.0  0.7828690167108561  0.02414200036161319  0.7670898369207659  1.0000
  C   C22       1.0  0.2171309836380003  0.9758579992440339  0.2329101628770575  1.0000
  C   C23       1.0  0.7175143317776455  0.9521500254330111  0.806902122098799  1.0000
  C   C24       1.0  0.28248566830169153  0.047849974258355396  0.19309787834799477  1.0000
  C   C25       1.0  0.6951931256944315  0.937677502537985  0.8961412074227767  1.0000
  C   C26       1.0  0.3048068743613207  0.062322497949519516  0.10385879237576022  1.0000
  C   C27       1.0  0.7438349078160724  0.9982186656394347  0.9443712380411243  1.0000
  C   C28       1.0  0.2561650914183926  0.0017813340596075885  0.05562876240697352  1.0000
  C   C29       1.0  0.6277980757580364  0.8645756795257686  0.9343414001842378  1.0000
  C   C30       1.0  0.3722019242977154  0.13542432096173593  0.06565859961429898  1.0000
  C   C31       1.0  0.5698334434083251  0.8018047467958109  0.9688091556427528  1.0000
  C   C32       1.0  0.43016655664742687  0.19819525369169352  0.03119084415578415  1.0000
  C   C33       1.0  0.4985232654190125  0.7331801099726936  0.00977882626622162  1.0000
  C   C34       1.0  0.5014767338154524  0.2668198897263487  0.9902211741818762  1.0000
  C   C35       1.0  0.43977252033142095  0.6839901797794301  0.9627899877258702  1.0000
  C   C36       1.0  0.5602274791725633  0.316009819833893  0.037210012073257234  1.0000
  C   C37       1.0  0.36551643581997256  0.6189079072898618  0.0008673561590898213  1.0000
  C   C38       1.0  0.6344835642357793  0.3810920931976427  0.9991326436394471  1.0000
  C   C39       1.0  0.3469190267309548  0.6021697458597572  0.08863002370479413  1.0000
  C   C40       1.0  0.6530809733247973  0.3978302546277473  0.9113699760937427  1.0000
  C   C41       1.0  0.4045075676872255  0.6499691817212795  0.1364492101084965  1.0000
  C   C42       1.0  0.5954924323685266  0.35003081876622494  0.8635507896900403  1.0000
  C   C43       1.0  0.47960698300425775  0.7145387281397506  0.09900322847130806  1.0000
  C   C44       1.0  0.5203930173445988  0.28546127146589634  0.9009967713265153  1.0000
  C   C45       1.0  0.9347044176448265  0.323141198924614  0.513751958553171  1.0000
  C   C46       1.0  0.0652955824109254  0.6768588015628906  0.48624804124536586  1.0000
  C   C47       1.0  0.9451750367851003  0.2677807941713979  0.5899267122355852  1.0000
  C   C48       1.0  0.05482496356375614  0.7322192054342491  0.41007328756223815  1.0000
  C   C49       1.0  0.06310212851225405  0.2072552439807644  0.5989245907895941  1.0000
  C   C50       1.0  0.9368978718366021  0.7927447556248827  0.40107540900822936  1.0000
  C   C51       1.0  0.16998808258316705  0.19915460936700413  0.5317110759607845  1.0000
  C   C52       1.0  0.8300119166512978  0.8008453903320382  0.4682889244873133  1.0000
  C   C53       1.0  0.15951706364570817  0.24905493318634883  0.4547327456450888  1.0000
  C   C54       1.0  0.8404829355651717  0.7509450673088317  0.5452672541547522  1.0000
  C   C55       1.0  0.041995709182219516  0.3125248046777102  0.4457359372299199  1.0000
  C   C56       1.0  0.958004290604013  0.6874751958955135  0.5542640632175874  1.0000
  C   C57       1.0  0.7851670347047914  0.4533406983758084  0.40014744940096164  1.0000
  C   C58       1.0  0.21483296452967338  0.5466593013232339  0.5998525510471362  1.0000
  C   C59       1.0  0.8434256390567736  0.5371825008181919  0.37405982346005734  1.0000
  C   C60       1.0  0.15657436015410625  0.4628174996769886  0.6259401763397836  1.0000
  C   C61       1.0  0.8463154472533062  0.5806977711753464  0.2934954930832902  1.0000
  C   C62       1.0  0.1536845528260307  0.4193022285160199  0.7065045073635036  1.0000
  C   C63       1.0  0.7905144536682727  0.5416706292901192  0.239148237695137  1.0000
  C   C64       1.0  0.20948554638747927  0.45832937119738526  0.7608517621033999  1.0000
  C   C65       1.0  0.730537772671121  0.4602645235978539  0.2657137828509362  1.0000
  C   C66       1.0  0.2694622273846311  0.5397354768896506  0.7342862169476005  1.0000
  C   C67       1.0  0.7280334386157251  0.415302922588227  0.3459670828158852  1.0000
  C   C68       1.0  0.27196656144002684  0.5846970778992775  0.6540329169826516  1.0000
  C   C69       1.0  0.6989358607633026  0.29838811337473325  0.5238091830818513  1.0000
  C   C70       1.0  0.30106413874068183  0.7016118862385897  0.47619081671727614  1.0000
  C   C71       1.0  0.7563760273476529  0.18833961855766373  0.47329456468704434  1.0000
  C   C72       1.0  0.24362397273168426  0.8116603811337026  0.5267054357597495  1.0000
  C   C73       1.0  0.6952244025374847  0.10667629629280984  0.4843937473807872  1.0000
  C   C74       1.0  0.30477559754185235  0.8933237033985565  0.5156062530660066  1.0000
  C   C75       1.0  0.5782510902425257  0.13354664303671931  0.5456741160574503  1.0000
  C   C76       1.0  0.4217489089683542  0.8664533574584611  0.45432588374239063  1.0000
  C   C77       1.0  0.5215737988918191  0.24283312557907327  0.5956592777897762  1.0000
  C   C78       1.0  0.47842620145703735  0.7571668740265738  0.40434072200804716  1.0000
  C   C79       1.0  0.581776454818112  0.32585886176070805  0.5852815691303979  1.0000
  C   C80       1.0  0.4182235452376398  0.6741411387267965  0.4147184306681389  1.0000
  C   C81       1.0  0.6999579329512481  0.528514346660467  0.583865535689194  1.0000
  C   C82       1.0  0.3000420665527363  0.47148565295285605  0.4161344641099334  1.0000
  C   C83       1.0  0.5972883577254272  0.6163740020764096  0.5680784753176412  1.0000
  C   C84       1.0  0.40271164233032486  0.3836259984110949  0.4319215244808956  1.0000
  C   C85       1.0  0.5287937259386751  0.7159636853186526  0.6275532794054195  1.0000
  C   C86       1.0  0.4712062741406619  0.28403631437271365  0.37244672104137433  1.0000
  C   C87       1.0  0.5620908948612032  0.7279938396326048  0.702693282459359  1.0000
  C   C88       1.0  0.4379091052181336  0.27200616005876166  0.29730671798743474  1.0000
  C   C89       1.0  0.6642262799159832  0.640559109091534  0.718422297954142  1.0000
  C   C90       1.0  0.3357737204328734  0.359440890514113  0.28157770184368114  1.0000
  C   C91       1.0  0.7337669557957979  0.5407487034389736  0.6592457090327482  1.0000
  C   C92       1.0  0.26623304399043457  0.4592512971342503  0.3407542914147592  1.0000
  F   F1        1.0  0.012992308965618236  0.25986301815533586  0.2547996997616782  1.0000
  F   F2        1.0  0.9870076902452617  0.7401369823398446  0.7452003000381627  1.0000
  F   F3        1.0  0.13446227289959536  0.39712452842340146  0.1676059416779441  1.0000
  F   F4        1.0  0.8655377268866372  0.6028754721498224  0.8323940587695633  1.0000
  F   F5        1.0  0.15010060640598716  0.424707076359577  0.996128787253195  1.0000
  F   F6        1.0  0.8498993939428693  0.5752929232460701  0.003871212544628469  1.0000
  F   F7        1.0  0.037522351621724126  0.3168977174800178  0.9137887093517009  1.0000
  F   F8        1.0  0.9624776484340277  0.6831022830074868  0.0862112904468361  1.0000
  F   F9        1.0  0.8888822273996919  0.15497269745169118  0.7776005551826788  1.0000
  F   F10       1.0  0.11111777294916429  0.8450273021539559  0.2223994446151446  1.0000
  F   F11       1.0  0.801188621604257  0.036903936790759054  0.6817068407762251  1.0000
  F   F12       1.0  0.19881137760662285  0.9630960637044216  0.31829315902361577  1.0000
  F   F13       1.0  0.6746306170934034  0.8954808852589375  0.7577463803228317  1.0000
  F   F14       1.0  0.32536938241058083  0.10451911435438538  0.2422536194762957  1.0000
  F   F15       1.0  0.45309107265609905  0.7002216278941737  0.878252280274312  1.0000
  F   F16       1.0  0.5469089273996529  0.2997783725933308  0.12174771952422486  1.0000
  F   F17       1.0  0.31097834945680075  0.5732821277878736  0.9535200024816709  1.0000
  F   F18       1.0  0.6890216506225361  0.4267178719034928  0.04647999796512289  1.0000
  F   F19       1.0  0.27329403447968736  0.5410146756810639  0.12628831434515234  1.0000
  F   F20       1.0  0.7267059658691691  0.45898532392458313  0.873711685452671  1.0000
  F   F21       1.0  0.3829361167911994  0.63234542636815  0.22188219507292725  1.0000
  F   F22       1.0  0.6170638835576571  0.367654573237497  0.7781178047248961  1.0000
  P   P1        1.0  0.7805610653966085  0.40133524328847076  0.5053603411612166  1.0000
  P   P2        1.0  0.2194389346827284  0.5986647564028956  0.49463965928557707  1.0000
  Br  Br1       1.0  0.7193361173057168  0.9813141960122249  0.06354282809964429  1.0000
  Br  Br2       1.0  0.28066388248051594  0.0186858045609988  0.936457172347863  1.0000
  I   I1        1.0  0.852102697136167  0.11630452168956566  0.2012210962591759  1.0000
  I   I2        1.0  0.1478973029195848  0.8836954787979389  0.798778903539361  1.0000
  I   I3        1.0  0.5589581411884827  0.7914723034741832  0.1750215883596407  1.0000
  I   I4        1.0  0.4410418588672694  0.20852769701332133  0.8249784114388962  1.0000
  I   I5        1.0  0.6827948415153102  0.9397521101761962  0.28361148500970146  1.0000
  I   I6        1.0  0.31720515856402687  0.06024788951517011  0.7163885154370923  1.0000
