data_image0
_chemical_formula_structural       H60C70O6Cl4
_chemical_formula_sum              "H60 C70 O6 Cl4"
_cell_length_a       10.030377041406206
_cell_length_b       10.838440802911007
_cell_length_c       13.413084972598336
_cell_angle_alpha    73.6401941297775
_cell_angle_beta     76.89770171244962
_cell_angle_gamma    88.08326574845925

_space_group_name_H-M_alt    "P 1"
_space_group_IT_number       1

loop_
  _space_group_symop_operation_xyz
  'x, y, z'

loop_
  _atom_site_type_symbol
  _atom_site_label
  _atom_site_symmetry_multiplicity
  _atom_site_fract_x
  _atom_site_fract_y
  _atom_site_fract_z
  _atom_site_occupancy
  H   H1        1.0  0.922225144467387  0.42645773684186994  0.4684518073451393  1.0000
  H   H2        1.0  0.07777485516919823  0.5735422631378322  0.5315481929892303  1.0000
  H   H3        1.0  0.8789800167298176  0.5210247163406038  0.6228733787340864  1.0000
  H   H4        1.0  0.12101998313821431  0.478975283907998  0.3771266208025408  1.0000
  H   H5        1.0  0.6501703768513393  0.33614124842355675  0.775985203355474  1.0000
  H   H6        1.0  0.34982962278524604  0.6638587515561456  0.22401479697889567  1.0000
  H   H7        1.0  0.7146997681019261  0.39842876468758187  0.5357307772831849  1.0000
  H   H8        1.0  0.2853002315346591  0.6015712352921206  0.4642692230511847  1.0000
  H   H9        1.0  0.558234517017316  0.19587909323703515  0.7169576054415632  1.0000
  H   H10       1.0  0.4417654826192694  0.8041209067426671  0.28304239489280636  1.0000
  H   H11       1.0  0.5653012974186461  0.22062125882548692  0.5798682159912346  1.0000
  H   H12       1.0  0.43469870344650074  0.7793787414235969  0.42013178354486147  1.0000
  H   H13       1.0  0.8598764779581565  0.2547466937761625  0.8726543134488904  1.0000
  H   H14       1.0  0.140123521678429  0.7452533062035398  0.12734568688547912  1.0000
  H   H15       1.0  0.8029769355676458  0.1509077589977338  0.8091737217753557  1.0000
  H   H16       1.0  0.1970230650660545  0.8490922409824507  0.19082627855848244  1.0000
  H   H17       1.0  0.3472624812879078  0.2545942829462936  0.6655146453757156  1.0000
  H   H18       1.0  0.6527375185801243  0.7454057173023081  0.3344853541609116  1.0000
  H   H19       1.0  0.3960649187554126  0.03774500539049761  0.7784606793698136  1.0000
  H   H20       1.0  0.6039350811126195  0.9622549948581041  0.22153932016681374  1.0000
  H   H21       1.0  0.20529602345516648  0.8943363195144288  0.9026529532347329  1.0000
  H   H22       1.0  0.7947039774431708  0.10566367981091389  0.09734704630308562  1.0000
  H   H23       1.0  0.9646692217342879  0.9638796493914445  0.9212011323209164  1.0000
  H   H24       1.0  0.03533077790229737  0.03612035058825772  0.07879886801345316  1.0000
  H   H25       1.0  0.02391202264314773  0.6302255081911492  0.6922491093440494  1.0000
  H   H26       1.0  0.9760879769934376  0.36977449178855315  0.30775089099032027  1.0000
  H   H27       1.0  0.04869556282081181  0.7250927773838591  0.8348502958096149  1.0000
  H   H28       1.0  0.9513044368157736  0.27490722259584316  0.16514970452475453  1.0000
  H   H29       1.0  0.6960185381096424  0.5005835136885987  0.044910563493961844  1.0000
  H   H30       1.0  0.3039814617583896  0.499416486560003  0.9550894360426654  1.0000
  H   H31       1.0  0.6717585661412998  0.40447256608596616  0.9025782508866654  1.0000
  H   H32       1.0  0.32824143372673215  0.5955274341626356  0.09742174864996188  1.0000
  H   H33       1.0  0.730950366376529  0.646700378717748  0.5533655252740842  1.0000
  H   H34       1.0  0.2690496334915031  0.35329962153085387  0.4466344742625431  1.0000
  H   H35       1.0  0.5630889650429719  0.8191269312374102  0.5320109795665955  1.0000
  H   H36       1.0  0.43691103482506016  0.1808730690111914  0.4679890199700318  1.0000
  H   H37       1.0  0.25446076228087283  0.5674646035269588  0.7746720946273995  1.0000
  H   H38       1.0  0.7455392373557125  0.43253539645274336  0.22532790570697012  1.0000
  H   H39       1.0  0.42598796236450853  0.3974534829339943  0.8007604873470762  1.0000
  H   H40       1.0  0.5740120373052675  0.6025465161219669  0.19923951298901602  1.0000
  H   H41       1.0  0.587972602142875  0.9427035192841166  0.6563068999405931  1.0000
  H   H42       1.0  0.4120273974937103  0.057296480695585655  0.3436931003937765  1.0000
  H   H43       1.0  0.7747364350351685  0.7850545799927412  0.658671923156289  1.0000
  H   H44       1.0  0.22526356483286356  0.2149454202558605  0.3413280763803383  1.0000
  H   H45       1.0  0.01474860942244013  0.8575449606027358  0.6280685467210546  1.0000
  H   H46       1.0  0.9852513902141452  0.14245503937696669  0.37193145361331503  1.0000
  H   H47       1.0  0.07346553581157124  0.08749008409146215  0.5996799585408493  1.0000
  H   H48       1.0  0.9265344638250143  0.9125099158882403  0.40032004179352015  1.0000
  H   H49       1.0  0.41913895462954004  0.6859839438292009  0.9222161814959591  1.0000
  H   H50       1.0  0.5808610450070455  0.31401605615050154  0.07778381883841043  1.0000
  H   H51       1.0  0.5954107552939423  0.7057203310790359  0.8516531117831119  1.0000
  H   H52       1.0  0.40458924434264326  0.29427966890066637  0.14834688855125763  1.0000
  H   H53       1.0  0.4822018393939476  0.8298513040941828  0.8189775983995647  1.0000
  H   H54       1.0  0.5177981602426378  0.17014869588551942  0.18102240193480484  1.0000
  H   H55       1.0  0.613966450454643  0.0052927636049906685  0.8878102097348537  1.0000
  H   H56       1.0  0.38603354918194216  0.9947072363747117  0.11218979059951593  1.0000
  H   H57       1.0  0.7393089012903109  0.8899261936979063  0.8698820238213126  1.0000
  H   H58       1.0  0.2606910985777212  0.11007380655069528  0.1301179757153147  1.0000
  H   H59       1.0  0.6896874036675794  0.9270055018685748  0.9964557163852006  1.0000
  H   H60       1.0  0.3103125962336432  0.0729944974562858  0.0035442831531492195  1.0000
  C   C1        1.0  0.872086713506185  0.2857342423332483  0.6045278262173077  1.0000
  C   C2        1.0  0.1279132861304005  0.714265757646454  0.3954721741170618  1.0000
  C   C3        1.0  0.918820180876932  0.3265897319942675  0.6984147469087492  1.0000
  C   C4        1.0  0.08117981879284394  0.6734102670616936  0.3015852534273431  1.0000
  C   C5        1.0  0.8369554879540035  0.4497308478047337  0.699621623593038  1.0000
  C   C6        1.0  0.1630445116825817  0.5502691521749684  0.30037837674133155  1.0000
  C   C7        1.0  0.6930295306678154  0.40555698527181455  0.6986312222688732  1.0000
  C   C8        1.0  0.30697046896876984  0.5944430147078877  0.30136877806549645  1.0000
  C   C9        1.0  0.7213474055401394  0.33197273282588274  0.613053230540943  1.0000
  C   C10       1.0  0.2786525943278924  0.6680272674227189  0.38694676899568436  1.0000
  C   C11       1.0  0.6287067976671141  0.21142530232851472  0.6382409475285512  1.0000
  C   C12       1.0  0.3712932019694712  0.7885746976511876  0.36175905280581844  1.0000
  C   C13       1.0  0.7250143345588435  0.1022260554067171  0.6368841195398944  1.0000
  C   C14       1.0  0.27498566530918866  0.8977739448418847  0.36311587999673284  1.0000
  C   C15       1.0  0.8613272176208877  0.14273921707113887  0.6205330125330379  1.0000
  C   C16       1.0  0.1386727820156978  0.8572607829085633  0.37946698780133165  1.0000
  C   C17       1.0  0.0733278116952742  0.3444880492017226  0.6718085141287751  1.0000
  C   C18       1.0  0.9266721879413112  0.6555119507779796  0.32819148620559446  1.0000
  C   C19       1.0  0.12926725323768262  0.2273957943069846  0.731540383879358  1.0000
  C   C20       1.0  0.8707327466303494  0.7726042059416172  0.26845961565726917  1.0000
  C   C21       1.0  0.020959901817664307  0.1488190641637904  0.8044156602823591  1.0000
  C   C22       1.0  0.9790400978521115  0.8511809348921708  0.19558434005373307  1.0000
  C   C23       1.0  0.8875052038038841  0.21581185674942327  0.8034049414040176  1.0000
  C   C24       1.0  0.1124947958327013  0.7841881432302791  0.19659505893035187  1.0000
  C   C25       1.0  0.2653946156331652  0.19021445113973023  0.7214247762485827  1.0000
  C   C26       1.0  0.7346053842348668  0.8097855491088715  0.27857522328804457  1.0000
  C   C27       1.0  0.2912187775574655  0.06988563181193082  0.7843148713947066  1.0000
  C   C28       1.0  0.7087812230762347  0.9301143681682535  0.2156851289391317  1.0000
  C   C29       1.0  0.18291314799025396  0.9889559308555848  0.8549888051750553  1.0000
  C   C30       1.0  0.817086852874893  0.011044069393498954  0.14501119436104074  1.0000
  C   C31       1.0  0.04740527790581523  0.027595364903196733  0.8659240161537454  1.0000
  C   C32       1.0  0.9525947217307703  0.9724046350765057  0.1340759841806241  1.0000
  C   C33       1.0  0.8475871234403147  0.5084261911435671  0.7870874572310002  1.0000
  C   C34       1.0  0.1524128761962706  0.4915738088361353  0.2129125431033694  1.0000
  C   C35       1.0  0.9528612625528134  0.5993941289476835  0.7700315460578631  1.0000
  C   C36       1.0  0.04713873734840908  0.4006058703771771  0.22996845348048697  1.0000
  C   C37       1.0  0.967494563331727  0.653376460494912  0.8499762915003968  1.0000
  C   C38       1.0  0.03250543630485835  0.3466235394847903  0.15002370883397273  1.0000
  C   C39       1.0  0.8752163743072033  0.61609456182319  0.948871961989321  1.0000
  C   C40       1.0  0.12478362532938216  0.38390543815651207  0.05112803834504842  1.0000
  C   C41       1.0  0.7687588037494159  0.5269426251852998  0.9679156078034037  1.0000
  C   C42       1.0  0.23124119688428438  0.47305737479488447  0.03208439253043458  1.0000
  C   C43       1.0  0.7556862384952479  0.4737757343253222  0.887068207542039  1.0000
  C   C44       1.0  0.24431376236989913  0.5262242659237616  0.11293179199405712  1.0000
  C   C45       1.0  0.5914016440348845  0.5102993125784806  0.6808557631304677  1.0000
  C   C46       1.0  0.40859835560170094  0.48970068740122175  0.3191442372039017  1.0000
  C   C47       1.0  0.6275130375455725  0.628784888423325  0.6035238992111065  1.0000
  C   C48       1.0  0.3724869623556501  0.37121511090153536  0.39647610032724345  1.0000
  C   C49       1.0  0.532978051886817  0.7258505681150603  0.5898342676587635  1.0000
  C   C50       1.0  0.46702194798121494  0.2741494321335413  0.4101657318778639  1.0000
  C   C51       1.0  0.39988751029258585  0.7036855032636351  0.6529837035341565  1.0000
  C   C52       1.0  0.6001124893771902  0.29631449579232594  0.34701629680193563  1.0000
  C   C53       1.0  0.35936754168059987  0.5850230724518288  0.7274971579504078  1.0000
  C   C54       1.0  0.640632459184547  0.4149769277972549  0.2725028415856883  1.0000
  C   C55       1.0  0.4561212117275368  0.489803049174892  0.7412149040146927  1.0000
  C   C56       1.0  0.5438787881404952  0.5101969510737099  0.2587850955219346  1.0000
  C   C57       1.0  0.6930814537930807  0.9739571032598431  0.6484363962400865  1.0000
  C   C58       1.0  0.3069185460749513  0.026042896988758724  0.3515636032965407  1.0000
  C   C59       1.0  0.7980083419038458  0.8859539898589205  0.6479752991602319  1.0000
  C   C60       1.0  0.2019916577327395  0.11404601012078182  0.35202470117413764  1.0000
  C   C61       1.0  0.9338291735929339  0.9265226795687482  0.632328060177212  1.0000
  C   C62       1.0  0.06617082604365136  0.07347732041095409  0.36767194015715765  1.0000
  C   C63       1.0  0.9667301738116308  0.05562516819585749  0.6168358543905678  1.0000
  C   C64       1.0  0.03326982605640124  0.9443748320527442  0.3831641451460595  1.0000
  C   C65       1.0  0.5407510202204437  0.8129011377191445  0.966859952703842  1.0000
  C   C66       1.0  0.4592489796475884  0.18709886252945715  0.03314004683278533  1.0000
  C   C67       1.0  0.5061740916780505  0.7543287383540408  0.8860465704222089  1.0000
  C   C68       1.0  0.49382590895564976  0.24567126162614364  0.1139534299116295  1.0000
  C   C69       1.0  0.6545033384096632  0.913797938940463  0.9284778722856445  1.0000
  C   C70       1.0  0.34549666145836894  0.08620206130813872  0.07152212725098268  1.0000
  O   O1        1.0  0.9598608360692836  0.34367453799243836  0.5038311810068415  1.0000
  O   O2        1.0  0.04013916479586316  0.6563254622566455  0.4961688185292545  1.0000
  O   O3        1.0  0.14120811551627674  0.4393406753551675  0.6084914885258136  1.0000
  O   O4        1.0  0.8587918841203087  0.5606593246245347  0.39150851180855595  1.0000
  O   O5        1.0  0.47659578828353677  0.7812078455248064  0.060773761758137125  1.0000
  O   O6        1.0  0.5234042113530486  0.21879215445489586  0.9392262385762323  1.0000
  Cl  Cl1       1.0  0.8909354045816543  0.6828811276015722  0.04930696135022017  1.0000
  Cl  Cl2       1.0  0.1090645960852364  0.317118871454871  0.9506930389853407  1.0000
  Cl  Cl3       1.0  0.28455568822021243  0.8273294255211487  0.6395325911379258  1.0000
  Cl  Cl4       1.0  0.715444311416373  0.17267057445855363  0.36046740919644366  1.0000
