data_image0
_chemical_formula_structural       H80C78O4Br8
_chemical_formula_sum              "H80 C78 O4 Br8"
_cell_length_a       10.298704547142684
_cell_length_b       11.928845339003146
_cell_length_c       14.746308333232218
_cell_angle_alpha    101.11873982975798
_cell_angle_beta     104.09432748496653
_cell_angle_gamma    92.72767015755025

_space_group_name_H-M_alt    "P 1"
_space_group_IT_number       1

loop_
  _space_group_symop_operation_xyz
  'x, y, z'

loop_
  _atom_site_type_symbol
  _atom_site_label
  _atom_site_symmetry_multiplicity
  _atom_site_fract_x
  _atom_site_fract_y
  _atom_site_fract_z
  _atom_site_occupancy
  H   H1        1.0  0.8773188976393633  0.48894610796944665  0.815358100573697  1.0000
  H   H2        1.0  0.12268110179404444  0.5110538921830438  0.18464189919150947  1.0000
  H   H3        1.0  0.031024182270721543  0.530191177768921  0.7913705718772196  1.0000
  H   H4        1.0  0.9689758174219077  0.46980882256707013  0.20862942860327446  1.0000
  H   H5        1.0  0.05299246210704937  0.5702587590848099  0.9672005464753968  1.0000
  H   H6        1.0  0.9470075375855799  0.4297412412511811  0.03279945400509736  1.0000
  H   H7        1.0  0.13784515577241574  0.7759072191159908  0.0061815705002858734  1.0000
  H   H8        1.0  0.862154843660992  0.22409278103649968  0.9938184292649205  1.0000
  H   H9        1.0  0.1880346248044089  0.7028520335875721  0.9057339978344516  1.0000
  H   H10       1.0  0.8119653748882204  0.297147966748419  0.09426600264604242  1.0000
  H   H11       1.0  0.9318398625176657  0.8030722245767213  0.7196818283702433  1.0000
  H   H12       1.0  0.06816013788658952  0.196927775571805  0.28031817139519616  1.0000
  H   H13       1.0  0.06633318001479098  0.7168942364575004  0.7416277155489434  1.0000
  H   H14       1.0  0.933666819418617  0.28310576369499  0.2583722842162632  1.0000
  H   H15       1.0  0.7089071164944972  0.7495502783952991  0.7549195720560228  1.0000
  H   H16       1.0  0.2910928839097581  0.2504497217532272  0.24508042770941676  1.0000
  H   H17       1.0  0.6835342133834663  0.6211735342232881  0.7933959492626446  1.0000
  H   H18       1.0  0.31646578722981317  0.3788264652699985  0.20660405122006364  1.0000
  H   H19       1.0  0.727413528305014  0.7853750423227424  0.9304501099997844  1.0000
  H   H20       1.0  0.2725864713876153  0.21462495801324868  0.06954989048070973  1.0000
  H   H21       1.0  0.9197988026769329  0.7166244732535663  0.03836266833942128  1.0000
  H   H22       1.0  0.08020119701569632  0.2833755270824247  0.9616373321410727  1.0000
  H   H23       1.0  0.8108414315588492  0.5989700948602306  0.9598901150666769  1.0000
  H   H24       1.0  0.18915856884540608  0.40102990528829585  0.04010988469876277  1.0000
  H   H25       1.0  0.9495461880249526  0.9038419265529679  0.9842636518980407  1.0000
  H   H26       1.0  0.05045381166767654  0.09615807378302327  0.015736348582453392  1.0000
  H   H27       1.0  0.8622247239567249  0.917062805991875  0.8684564251473307  1.0000
  H   H28       1.0  0.13777527542648554  0.08293719332187505  0.13154357461985663  1.0000
  H   H29       1.0  0.6504869076626771  0.48869742314444786  0.6784257721657629  1.0000
  H   H30       1.0  0.34951309269138076  0.5113025761653381  0.32157422760165766  1.0000
  H   H31       1.0  0.562662590667586  0.38628602781944743  0.5138664562817251  1.0000
  H   H32       1.0  0.43733740973666946  0.613713972329079  0.48613354348371446  1.0000
  H   H33       1.0  0.891780838349867  0.544073273487799  0.43597548068837355  1.0000
  H   H34       1.0  0.10821916108354093  0.45592672666469136  0.5640245190768329  1.0000
  H   H35       1.0  0.9784881707052139  0.6517698893317309  0.600288271957456  1.0000
  H   H36       1.0  0.021511828937218033  0.34823011016551986  0.3997117285250191  1.0000
  H   H37       1.0  0.569370590016234  0.12555210128415584  0.21693255474631773  1.0000
  H   H38       1.0  0.43062941064724264  0.8744478990478712  0.7830674457344095  1.0000
  H   H39       1.0  0.5520887235814573  0.23831044437349883  0.09201672219250738  1.0000
  H   H40       1.0  0.44791127585195056  0.7616895557789916  0.907983277572699  1.0000
  H   H41       1.0  0.6889200817998479  0.5472018432100298  0.3071778116048361  1.0000
  H   H42       1.0  0.3110799176335601  0.4527981569424606  0.6928221881603703  1.0000
  H   H43       1.0  0.5425874778857814  0.053384631670823385  0.34083327056750873  1.0000
  H   H44       1.0  0.4574125227776954  0.9466153686612038  0.6591667299132186  1.0000
  H   H45       1.0  0.669595131444214  0.06316919770970661  0.44984411813390784  1.0000
  H   H46       1.0  0.3304048679891939  0.9368308024427838  0.5501558816312986  1.0000
  H   H47       1.0  0.7170624148147968  0.06465926502070429  0.3405153185169017  1.0000
  H   H48       1.0  0.28293758558945853  0.935340735127822  0.6594846812485379  1.0000
  H   H49       1.0  0.7294484970684657  0.47465684755333476  0.10489038569295477  1.0000
  H   H50       1.0  0.27055150262416355  0.5253431527826563  0.8951096147875394  1.0000
  H   H51       1.0  0.5659698902359608  0.4130337726064319  0.04414048904888084  1.0000
  H   H52       1.0  0.43403010919744706  0.5869662275460585  0.9558595107163257  1.0000
  H   H53       1.0  0.7590231644655289  0.6688526670787087  0.1149567777447717  1.0000
  H   H54       1.0  0.24097683491768154  0.3311473322350414  0.8850432220224157  1.0000
  H   H55       1.0  0.303750033605889  0.7180653119891999  0.16310065976562899  1.0000
  H   H56       1.0  0.6962499658275189  0.2819346881632905  0.8368993399995774  1.0000
  H   H57       1.0  0.3848339914231982  0.5264856530286682  0.14589058272286864  1.0000
  H   H58       1.0  0.6151660079600123  0.4735143462850818  0.8541094170443186  1.0000
  H   H59       1.0  0.3298236360906724  0.02844504182558987  0.20143031488394694  1.0000
  H   H60       1.0  0.670176364313583  0.9715549583229366  0.7985696848814926  1.0000
  H   H61       1.0  0.34428921536091006  0.9081568786353142  0.25885740205913926  1.0000
  H   H62       1.0  0.6557107840223004  0.0918431206784359  0.7411425977080481  1.0000
  H   H63       1.0  0.23810229451316156  0.893003785202898  0.13966836131823934  1.0000
  H   H64       1.0  0.7618977058910938  0.10699621494562847  0.8603316384472004  1.0000
  H   H65       1.0  0.8649251988431526  0.8590657142225474  0.24247510843869663  1.0000
  H   H66       1.0  0.1350748015611027  0.140934285925979  0.7575248913267429  1.0000
  H   H67       1.0  0.014867974646996655  0.02360359812732662  0.24060095092458336  1.0000
  H   H68       1.0  0.9851320247864113  0.9763964020251639  0.759399048840623  1.0000
  H   H69       1.0  0.7096460349750402  0.10908191479614716  0.013736120181419429  1.0000
  H   H70       1.0  0.29035396563823934  0.8909180846971396  0.9862638803012889  1.0000
  H   H71       1.0  0.5641822581487494  0.9408188602641092  0.01304436252644221  1.0000
  H   H72       1.0  0.4358177422555059  0.05918113988441715  0.9869556372389974  1.0000
  H   H73       1.0  0.44474114875153825  0.22226404696454835  0.4461057992398646  1.0000
  H   H74       1.0  0.5552588508908937  0.7777359525327024  0.5538942012426105  1.0000
  H   H75       1.0  0.2939951614709464  0.2835615863020199  0.4695798560267242  1.0000
  H   H76       1.0  0.706004838933309  0.7164384138465065  0.5304201437387155  1.0000
  H   H77       1.0  0.958918783664971  0.36281157439275863  0.6233056038821547  1.0000
  H   H78       1.0  0.04108121576843675  0.6371884257597318  0.37669439588305165  1.0000
  H   H79       1.0  0.8094007721663015  0.27135515491111106  0.5507626348608968  1.0000
  H   H80       1.0  0.1905992282379539  0.7286448452374152  0.4492373649045427  1.0000
  C   C1        1.0  0.8762632494512117  0.6445028927732666  0.7576757778215635  1.0000
  C   C2        1.0  0.12373674998219616  0.3554971073792239  0.24232422194364298  1.0000
  C   C3        1.0  0.9476430910029495  0.5635593895369139  0.8198941938912676  1.0000
  C   C4        1.0  0.05235690940130588  0.43644061061161255  0.180105805874172  1.0000
  C   C5        1.0  0.001026206995369903  0.6286551700179689  0.9240972480623209  1.0000
  C   C6        1.0  0.9989737934088855  0.37134483013055747  0.07590275170311875  1.0000
  C   C7        1.0  0.10048835108790136  0.7318136790193233  0.9306148967461134  1.0000
  C   C8        1.0  0.8995116483455065  0.26818632113316715  0.069385103019093  1.0000
  C   C9        1.0  0.031731577939703395  0.8149973119981042  0.8705116063846232  1.0000
  C   C10       1.0  0.9682684224143544  0.18500268731168187  0.12948839338279733  1.0000
  C   C11       1.0  0.9788160319891145  0.7466879230958868  0.7663624624908997  1.0000
  C   C12       1.0  0.021183967703514696  0.2533120772401042  0.23363753798959433  1.0000
  C   C13       1.0  0.7599008769155804  0.6912303027011935  0.7984515574550846  1.0000
  C   C14       1.0  0.24009912374789638  0.3087696976308335  0.20154844302564265  1.0000
  C   C15       1.0  0.8123343336599945  0.7542571521446643  0.903077288204981  1.0000
  C   C16       1.0  0.18766566674426083  0.24574284800386217  0.09692271156045855  1.0000
  C   C17       1.0  0.8828729109033512  0.6718616589624374  0.9628072630088106  1.0000
  C   C18       1.0  0.11712708950090438  0.328138341186089  0.03719273675662911  1.0000
  C   C19       1.0  0.9122349727870663  0.8565067034203715  0.9096562137998465  1.0000
  C   C20       1.0  0.08776502664634146  0.1434932967321189  0.09034378596535989  1.0000
  C   C21       1.0  0.8227692100874151  0.579733589962359  0.6543993807481753  1.0000
  C   C22       1.0  0.17723079031684025  0.42026641018616745  0.34560061901726424  1.0000
  C   C23       1.0  0.7054068008481624  0.5028124350332914  0.6264137376214997  1.0000
  C   C24       1.0  0.29459319955609303  0.4971875651152351  0.37358626214394  1.0000
  C   C25       1.0  0.6552381155366198  0.44289614046558395  0.532310067410131  1.0000
  C   C26       1.0  0.34476188384659073  0.5571038588481662  0.4676899323570563  1.0000
  C   C27       1.0  0.7207635106179165  0.45589960268045443  0.46129994779599515  1.0000
  C   C28       1.0  0.2792364888154914  0.544100397472036  0.5387000519692113  1.0000
  C   C29       1.0  0.8375922679763426  0.5326722825064717  0.48894587530746036  1.0000
  C   C30       1.0  0.162407731406868  0.4673277168072783  0.511054124459727  1.0000
  C   C31       1.0  0.8875545322908187  0.5930984779322255  0.5832081551769462  1.0000
  C   C32       1.0  0.11244546811343668  0.4069015222163008  0.4167918445884934  1.0000
  C   C33       1.0  0.6709961610190167  0.3936633497203466  0.3604934067352175  1.0000
  C   C34       1.0  0.3290038386736127  0.6063366506156446  0.6395065937452767  1.0000
  C   C35       1.0  0.6366853605329043  0.27326520982348745  0.33426435927352927  1.0000
  C   C36       1.0  0.36331463885030624  0.7267347894902625  0.6657356404936581  1.0000
  C   C37       1.0  0.5939831936539686  0.2181961338209853  0.2378492755710465  1.0000
  C   C38       1.0  0.40601680675028684  0.7818038663275411  0.7621507241943932  1.0000
  C   C39       1.0  0.5862007608725183  0.2819391654089413  0.16708900060743528  1.0000
  C   C40       1.0  0.4137992397909585  0.7180608349230858  0.832910999873292  1.0000
  C   C41       1.0  0.6230785362524965  0.40011511388655113  0.190400780547861  1.0000
  C   C42       1.0  0.37692146318091135  0.5998848862659393  0.8095992192173455  1.0000
  C   C43       1.0  0.6637660256054831  0.4541589083653134  0.2872288549115608  1.0000
  C   C44       1.0  0.3362339750579937  0.5458410919667136  0.7127711455691664  1.0000
  C   C45       1.0  0.6441858995092508  0.09162572837698185  0.38198039336059386  1.0000
  C   C46       1.0  0.355814099924157  0.9083742717755086  0.6180196064046126  1.0000
  C   C47       1.0  0.6258288485624078  0.46545621795006425  0.1127935495549704  1.0000
  C   C48       1.0  0.3741711511302214  0.5345437823859268  0.8872064509255236  1.0000
  C   C49       1.0  0.5772493902901796  0.583113166556061  0.1275027274323417  1.0000
  C   C50       1.0  0.4227506101140757  0.41688683359246537  0.8724972723330979  1.0000
  C   C51       1.0  0.6578541371198698  0.679061097880638  0.12403354839920615  1.0000
  C   C52       1.0  0.342145863543607  0.32093890245138906  0.875966452081521  1.0000
  C   C53       1.0  0.6135931679214105  0.7886253969323298  0.13067617502491105  1.0000
  C   C54       1.0  0.3864068315119974  0.21137460322016058  0.8693238247402953  1.0000
  C   C55       1.0  0.48365367689154887  0.8023646774264047  0.14398574988100205  1.0000
  C   C56       1.0  0.5163463224916617  0.19763532188734534  0.8560142498861854  1.0000
  C   C57       1.0  0.4026789953433619  0.7079210051138944  0.1504468657512979  1.0000
  C   C58       1.0  0.5973210050608935  0.2920789950346319  0.8495531340141417  1.0000
  C   C59       1.0  0.44950251231037974  0.5994876110752502  0.1416989259311481  1.0000
  C   C60       1.0  0.5504974880938756  0.4005123890732762  0.8583010738342914  1.0000
  C   C61       1.0  0.33284890957091806  0.9352240633903224  0.19032716650401846  1.0000
  C   C62       1.0  0.66715109078314  0.06477593591946358  0.8096728332634021  1.0000
  C   C63       1.0  0.702831393593331  0.8881636249940885  0.12832312790428257  1.0000
  C   C64       1.0  0.2971686068109244  0.11183637515443806  0.871676871861157  1.0000
  C   C65       1.0  0.8315756166536568  0.913057081008269  0.19116393165994067  1.0000
  C   C66       1.0  0.1684243829887752  0.08694291848898163  0.8088360688225343  1.0000
  C   C67       1.0  0.9157246166415399  0.007356462656674149  0.19013230536832432  1.0000
  C   C68       1.0  0.08427538279186783  0.9926435374958164  0.8098676943968821  1.0000
  C   C69       1.0  0.8744564755298977  0.08157985741186273  0.12760791298952598  1.0000
  C   C70       1.0  0.12554352385331274  0.9184201419018873  0.8723920867776614  1.0000
  C   C71       1.0  0.7464335485936522  0.05497907394210337  0.06409353767437474  1.0000
  C   C72       1.0  0.25356645109897696  0.9450209263938877  0.9359064628061192  1.0000
  C   C73       1.0  0.6624979537776049  0.9598869232878572  0.06402352064230239  1.0000
  C   C74       1.0  0.33750204662665056  0.04011307686066923  0.9359764791231372  1.0000
  C   C75       1.0  0.3606893077402731  0.21585929947367796  0.4783953854750618  1.0000
  C   C76       1.0  0.6393106929232037  0.7841407008583492  0.5216046150056656  1.0000
  C   C77       1.0  0.9074408499799607  0.27616252729129553  0.6011928502585371  1.0000
  C   C78       1.0  0.09255915037409725  0.7238374720184906  0.3988071495088834  1.0000
  O   O1        1.0  0.6503837500796306  0.21476229293301877  0.40725816307380297  1.0000
  O   O2        1.0  0.34961625032462496  0.7852377072155077  0.5927418366916367  1.0000
  O   O3        1.0  0.4464293390570243  0.9119808037992835  0.1529940714724396  1.0000
  O   O4        1.0  0.5535706612970338  0.08801919551050269  0.847005928294981  1.0000
  Br  Br1       1.0  0.2538599466660771  0.07023510182754308  0.4132129249943372  1.0000
  Br  Br2       1.0  0.7461400539973997  0.929764898504484  0.5867870754863901  1.0000
  Br  Br3       1.0  0.43538886249670994  0.22761910508212616  0.6145166211903835  1.0000
  Br  Br4       1.0  0.5646111379075455  0.7723808950664003  0.3854833785750561  1.0000
  Br  Br5       1.0  0.017264022847194287  0.17523262801018158  0.5397693382100853  1.0000
  Br  Br6       1.0  0.9827359778162824  0.8247673723218455  0.46023066227064197  1.0000
  Br  Br7       1.0  0.8775770851992062  0.23286129237929412  0.71590922466831  1.0000
  Br  Br8       1.0  0.12242291423420178  0.7671387077731963  0.28409077509689645  1.0000
