data_image0
_chemical_formula_structural       H40C84N8F8S16
_chemical_formula_sum              "H40 C84 N8 F8 S16"
_cell_length_a       5.460676669265018
_cell_length_b       14.891808297755203
_cell_length_c       23.876265277516445
_cell_angle_alpha    90.0
_cell_angle_beta     92.47748267999931
_cell_angle_gamma    90.0

_space_group_name_H-M_alt    "P 1"
_space_group_IT_number       1

loop_
  _space_group_symop_operation_xyz
  'x, y, z'

loop_
  _atom_site_type_symbol
  _atom_site_label
  _atom_site_symmetry_multiplicity
  _atom_site_fract_x
  _atom_site_fract_y
  _atom_site_fract_z
  _atom_site_occupancy
  H   H1        1.0  0.07852247742374305  0.22797274797794387  0.775615022088035  1.0000
  H   H2        1.0  0.4214775226372865  0.727972748053314  0.7243849778883187  1.0000
  H   H3        1.0  0.9214775223461789  0.7720272521727966  0.22438497802514426  1.0000
  H   H4        1.0  0.5785224771338369  0.27202725209742634  0.27561502180604663  1.0000
  H   H5        1.0  0.9978653854984302  0.30078722747694825  0.22450472320079434  1.0000
  H   H6        1.0  0.5021346158133717  0.8007872275523185  0.2754952770676065  1.0000
  H   H7        1.0  0.002134616104479503  0.6992127726737921  0.775495276930781  1.0000
  H   H8        1.0  0.49786538395655017  0.19921277259842193  0.7245047230455727  1.0000
  H   H9        1.0  0.26677247996551245  0.1674602090046992  0.9491000058283902  1.0000
  H   H10       1.0  0.23322752009551714  0.6674602090800694  0.5508999941479635  1.0000
  H   H11       1.0  0.7332275198044094  0.8325397911460412  0.05089999428478918  1.0000
  H   H12       1.0  0.7667724796744047  0.332539791070671  0.44910000596521565  1.0000
  H   H13       1.0  0.26899828477874005  0.2678443705591655  0.14588610146298225  1.0000
  H   H14       1.0  0.23100171602211392  0.7678443706345356  0.3541138988122124  1.0000
  H   H15       1.0  0.7310017149911818  0.7321556289200648  0.854113898650197  1.0000
  H   H16       1.0  0.768998283747808  0.23215562951620472  0.6458861013009669  1.0000
  H   H17       1.0  0.002257722468186422  0.1410595219867724  0.8625736094004752  1.0000
  H   H18       1.0  0.49774227759284323  0.6410595220621427  0.6374263905758784  1.0000
  H   H19       1.0  0.9977422773017355  0.858940478163968  0.137426390712704  1.0000
  H   H20       1.0  0.5022577240100665  0.3589404780885978  0.3625736095556969  1.0000
  H   H21       1.0  0.697592087175087  0.35739044940581655  0.8595174052537408  1.0000
  H   H22       1.0  0.8024079115639026  0.8573904494811867  0.6404825946974231  1.0000
  H   H23       1.0  0.3024079125948348  0.6426095507449239  0.14048259485943845  1.0000
  H   H24       1.0  0.19759208820601915  0.14260955066955364  0.35951740541575616  1.0000
  H   H25       1.0  0.46252968033792574  0.5233931067441226  0.27506479492850067  1.0000
  H   H26       1.0  0.03747032046412995  0.023393106668752432  0.22493520492787997  1.0000
  H   H27       1.0  0.5374703212661855  0.47660689340661777  0.7249352047842607  1.0000
  H   H28       1.0  0.9625296793057918  0.976606893481988  0.7750647951852994  1.0000
  H   H29       1.0  0.7266554174355858  0.4928953518093871  0.19511676470559006  1.0000
  H   H30       1.0  0.773344583876216  0.9928953518847573  0.30488323556281083  1.0000
  H   H31       1.0  0.2733445841673238  0.5071046483413534  0.8048832354259852  1.0000
  H   H32       1.0  0.2266554158937058  0.007104648265983151  0.6951167645503684  1.0000
  H   H33       1.0  0.4223353447004968  0.33555710495905705  0.7740613265814398  1.0000
  H   H34       1.0  0.0776646553605328  0.8355571050344273  0.7259386733949138  1.0000
  H   H35       1.0  0.577664655069425  0.6644428951916833  0.22593867353173952  1.0000
  H   H36       1.0  0.9223353444105906  0.1644428951163131  0.27406132629945135  1.0000
  H   H37       1.0  0.0920175091932741  0.4289872910171016  0.2889913780065622  1.0000
  H   H38       1.0  0.40798249160757993  0.9289872910924718  0.2110086222686324  1.0000
  H   H39       1.0  0.9079824905766477  0.5710127091336388  0.711008622106617  1.0000
  H   H40       1.0  0.5920175081623419  0.07101270905826858  0.7889913778445469  1.0000
  C   C1        1.0  0.46565151151211515  0.3910208588219446  0.05460767087812922  1.0000
  C   C2        1.0  0.034348489288738855  0.8910208588973147  0.4453923293970654  1.0000
  C   C3        1.0  0.5343484882578067  0.6089791413287958  0.94539232923505  1.0000
  C   C4        1.0  0.965651510481183  0.10897914125342563  0.5546076707161139  1.0000
  C   C5        1.0  0.45894513766911466  0.36215461562266843  0.9999328727549162  1.0000
  C   C6        1.0  0.04105486239191495  0.8621546156980386  0.5000671272214375  1.0000
  C   C7        1.0  0.5410548621008072  0.6378453845280719  6.712735826314358e-05  1.0000
  C   C8        1.0  0.9589451373780069  0.13784538445270175  0.49993287289174176  1.0000
  C   C9        1.0  0.19761999801132907  0.2367904628836477  0.8130694245007978  1.0000
  C   C10       1.0  0.30238000204970056  0.736790462959018  0.6869305754755558  1.0000
  C   C11       1.0  0.8023800017585927  0.7632095365955827  0.18693057561238144  1.0000
  C   C12       1.0  0.6976199977202213  0.2632095371917225  0.3130694246376235  1.0000
  C   C13       1.0  0.1032603979249925  0.47384540338621517  0.005832489004700065  1.0000
  C   C14       1.0  0.3967396010428737  0.9738454034615853  0.49416751125209857  1.0000
  C   C15       1.0  0.8967396018449293  0.5261545967645253  0.9941675111084791  1.0000
  C   C16       1.0  0.6032603987270481  0.026154596689155055  0.5058324888610807  1.0000
  C   C17       1.0  0.15812574670939028  0.342498650131619  0.21850208423864076  1.0000
  C   C18       1.0  0.3418742522596776  0.8424986502069892  0.2814979155993439  1.0000
  C   C19       1.0  0.8418742530617332  0.6575013493476113  0.7814979154557244  1.0000
  C   C20       1.0  0.6581257475102443  0.1575013499437512  0.7185020845138355  1.0000
  C   C21       1.0  0.30390801476503415  0.20138834653492524  0.9100003697134249  1.0000
  C   C22       1.0  0.19609198529599547  0.7013883466102954  0.5899996302629287  1.0000
  C   C23       1.0  0.6960919850060893  0.7986116536158152  0.08999962998094028  1.0000
  C   C24       1.0  0.8039080144739265  0.29861165354044494  0.41000036985025057  1.0000
  C   C25       1.0  0.3090446709141904  0.32349833033548975  0.1744306872320238  1.0000
  C   C26       1.0  0.1909553298866636  0.8234983297393499  0.32556931304317077  1.0000
  C   C27       1.0  0.6909553288557314  0.6765016698152506  0.8255693128811554  1.0000
  C   C28       1.0  0.8090446698832583  0.17650166973988043  0.6744306870700084  1.0000
  C   C29       1.0  0.49818297056963157  0.2627459078015268  0.908731146037479  1.0000
  C   C30       1.0  0.0018170294913980784  0.762745907876897  0.5912688539388747  1.0000
  C   C31       1.0  0.5018170292002904  0.7372540923492136  0.0912688540757004  1.0000
  C   C32       1.0  0.9981829721115115  0.23725409227384342  0.4087311461927005  1.0000
  C   C33       1.0  0.5115272718035774  0.37890754951838657  0.1658748331476492  1.0000
  C   C34       1.0  0.9884727276752369  0.8789075495937568  0.3341251671023557  1.0000
  C   C35       1.0  0.48847272796634444  0.6210924506323537  0.8341251669655302  1.0000
  C   C36       1.0  0.011527272094685131  0.1210924505569836  0.6658748330108236  1.0000
  C   C37       1.0  0.15466416561844437  0.18819382401145043  0.8617553340521905  1.0000
  C   C38       1.0  0.34533583260959744  0.6881938240868207  0.6382446659057671  1.0000
  C   C39       1.0  0.8453358341514775  0.8118061754677799  0.13824466606098879  1.0000
  C   C40       1.0  0.6546641671603244  0.3118061753924096  0.3617553342074121  1.0000
  C   C41       1.0  0.54634071136852  0.30975270214130624  0.8596735740441694  1.0000
  C   C42       1.0  0.9536592892034573  0.8097527022166764  0.6403264259253905  1.0000
  C   C43       1.0  0.45365928840140185  0.6902472973379241  0.1403264260690098  1.0000
  C   C44       1.0  0.04634071056766603  0.19024729726255385  0.35967357376897485  1.0000
  C   C45       1.0  0.41802270509255013  0.467608955256944  0.24687362618603684  1.0000
  C   C46       1.0  0.08197729570950558  0.9676089553323143  0.25312637367034374  1.0000
  C   C47       1.0  0.5819772946773718  0.5323910448937964  0.7531263739271423  1.0000
  C   C48       1.0  0.9180227040616179  0.0323910448184262  0.7468736260240215  1.0000
  C   C49       1.0  0.5686288818310843  0.4503609605967711  0.20218300817777607  1.0000
  C   C50       1.0  0.9313711176489315  0.9503609606721413  0.29781699165341485  1.0000
  C   C51       1.0  0.4313711179388376  0.5496390388824592  0.7978169919354031  1.0000
  C   C52       1.0  0.06862888212219201  0.049639039478599094  0.7021830080409505  1.0000
  C   C53       1.0  0.3929968867635175  0.2973028668833579  0.8120561822590562  1.0000
  C   C54       1.0  0.1070031132975121  0.7973028669587281  0.6879438177172975  1.0000
  C   C55       1.0  0.607003113007606  0.7026971332673825  0.18794381743530914  1.0000
  C   C56       1.0  0.8929968864724098  0.2026971331920123  0.3120561823958818  1.0000
  C   C57       1.0  0.21151460789091606  0.4144158792945434  0.2546672547606773  1.0000
  C   C58       1.0  0.28848539291113956  0.9144158793699135  0.2453327450957033  1.0000
  C   C59       1.0  0.7884853918790057  0.585584120856197  0.7453327453525019  1.0000
  C   C60       1.0  0.7115146068599839  0.0855841207808268  0.7546672545986619  1.0000
  C   C61       1.0  0.9997255499058625  0.15423019179921993  0.06559910493987064  1.0000
  C   C62       1.0  0.5002744514059393  0.6542301918745902  0.4344008953285302  1.0000
  C   C63       1.0  0.0002744498640593132  0.8457698083515204  0.9344008951733087  1.0000
  C   C64       1.0  0.4997255501969703  0.3457698082761502  0.565599104803045  1.0000
  C   C65       1.0  0.6463067520901303  0.05410120140489898  0.04066500146543944  1.0000
  C   C66       1.0  0.8536932492216716  0.5541012014802692  0.45933499880296147  1.0000
  C   C67       1.0  0.35369324951277925  0.9458987987458414  0.9593349986661358  1.0000
  C   C68       1.0  0.14630675054825037  0.4458987986704712  0.5406650013102178  1.0000
  C   C69       1.0  0.7887900334452549  0.10634796918778021  0.07991994775125097  1.0000
  C   C70       1.0  0.7112099678677486  0.6063479692631504  0.420080052098336  1.0000
  C   C71       1.0  0.21120996632466693  0.89365203029145  0.9200800523619282  1.0000
  C   C72       1.0  0.2887900319021732  0.39365203021607986  0.5799199480148434  1.0000
  C   C73       1.0  0.6988489726820994  0.04668071708288031  0.9830702104867907  1.0000
  C   C74       1.0  0.8011510278898781  0.5466807171582505  0.5169297894827692  1.0000
  C   C75       1.0  0.301151027089024  0.9533192830678602  0.016929789207574646  1.0000
  C   C76       1.0  0.19884897188004386  0.4533192829924899  0.48307021063041  1.0000
  C   C77       1.0  0.7324296804418494  0.11700368787735801  0.13668539853677208  1.0000
  C   C78       1.0  0.7675703190381662  0.6170036879527282  0.3633146012944188  1.0000
  C   C79       1.0  0.2675703193292741  0.8829963122733824  0.8633146011575932  1.0000
  C   C80       1.0  0.23242968073175552  0.38299631219801217  0.6366853988187604  1.0000
  C   C81       1.0  0.4379070901703978  0.0034888120341860485  0.05516965493109156  1.0000
  C   C82       1.0  0.06209290879746834  0.5034888121095562  0.44483034532570703  1.0000
  C   C83       1.0  0.562092909599524  0.9965111881165544  0.9448303451820876  1.0000
  C   C84       1.0  0.9379070909724535  0.49651118804118416  0.5551696547874722  1.0000
  N   N1        1.0  0.1793610896622744  0.19420961324327288  0.056807087889948656  1.0000
  N   N2        1.0  0.32063890930679345  0.6942096133186431  0.443192911948036  1.0000
  N   N3        1.0  0.8206389101076474  0.8057903869074675  0.9431929122232307  1.0000
  N   N4        1.0  0.6793610904631283  0.3057903868320973  0.5568070881651432  1.0000
  N   N5        1.0  0.7008886716819347  0.12958205823069086  0.18434985427192765  1.0000
  N   N6        1.0  0.7991113277968793  0.6295820583060611  0.3156501459780773  1.0000
  N   N7        1.0  0.2991113280879872  0.8704179419200495  0.8156501458412517  1.0000
  N   N8        1.0  0.20088867197304244  0.3704179418446793  0.6843498541351019  1.0000
  F   F1        1.0  0.8954526885630673  0.09084828336152675  0.9637081296759274  1.0000
  F   F2        1.0  0.6045473101759224  0.5908482834368969  0.5362918702752365  1.0000
  F   F3        1.0  0.10454731120685458  0.9091517167892137  0.03629187043725189  1.0000
  F   F4        1.0  0.3954526895939995  0.4091517167138434  0.4637081298379427  1.0000
  F   F5        1.0  0.36939932865001784  0.0028413218296919787  0.10897670112289176  1.0000
  F   F6        1.0  0.1306006721520378  0.5028413219050621  0.39102329873348884  1.0000
  F   F7        1.0  0.6306006729528918  0.9971586783210483  0.8910232990086834  1.0000
  F   F8        1.0  0.8693993276178841  0.4971586782456782  0.6089767013796904  1.0000
  S   S1        1.0  0.6873435476181743  0.36109296013504155  0.10553786604714188  1.0000
  S   S2        1.0  0.8126564518618414  0.8610929602104118  0.39446213378404904  1.0000
  S   S3        1.0  0.3126564521517476  0.638907040015699  0.8944621340660373  1.0000
  S   S4        1.0  0.18734354790928198  0.13890703994032866  0.6055378659103162  1.0000
  S   S5        1.0  0.23016883255918766  0.4071998845777568  0.9555172527274494  1.0000
  S   S6        1.0  0.26983116750184194  0.9071998839816169  0.5444827472489041  1.0000
  S   S7        1.0  0.7698311672119357  0.5928001155729836  0.04448274696691578  1.0000
  S   S8        1.0  0.7301688322680799  0.09280011549761338  0.4555172528642751  1.0000
  S   S9        1.0  0.6687588753419713  0.2890367626239742  0.972020528893819  1.0000
  S   S10       1.0  0.8312411252300062  0.7890367626993444  0.527979471075741  1.0000
  S   S11       1.0  0.3312411262609383  0.7109632375267662  0.02797947123775624  1.0000
  S   S12       1.0  0.16875887453991567  0.210963237451396  0.4720205290374384  1.0000
  S   S13       1.0  0.2451339074990873  0.46936115817805824  0.07167374237069052  1.0000
  S   S14       1.0  0.2548660914687789  0.9693611582534284  0.4283262578861082  1.0000
  S   S15       1.0  0.7548660922708345  0.530638841301172  0.9283262577424888  1.0000
  S   S16       1.0  0.7451339083011429  0.03063884189731196  0.5716737422270711  1.0000
