data_image0
_chemical_formula_structural       H56C92N8O8F8S16
_chemical_formula_sum              "H56 C92 N8 O8 F8 S16"
_cell_length_a       10.845495158596622
_cell_length_b       13.754290328981218
_cell_length_c       15.212323011853675
_cell_angle_alpha    77.93485090554081
_cell_angle_beta     87.78539397768053
_cell_angle_gamma    72.84987758986351

_space_group_name_H-M_alt    "P 1"
_space_group_IT_number       1

loop_
  _space_group_symop_operation_xyz
  'x, y, z'

loop_
  _atom_site_type_symbol
  _atom_site_label
  _atom_site_symmetry_multiplicity
  _atom_site_fract_x
  _atom_site_fract_y
  _atom_site_fract_z
  _atom_site_occupancy
  H   H1        1.0  0.9187830233577031  0.9194509759778229  0.31489758766324627  1.0000
  H   H2        1.0  0.08121697672151292  0.08054902417638135  0.6851024118929387  1.0000
  H   H3        1.0  0.10536645098454678  0.7804564534994634  0.3977791391123083  1.0000
  H   H4        1.0  0.8946335481708706  0.2195435466569444  0.6022208611260813  1.0000
  H   H5        1.0  0.9408642084804748  0.5455566064497994  0.34846145131919665  1.0000
  H   H6        1.0  0.05913579159795649  0.4544433937058308  0.6515385488941011  1.0000
  H   H7        1.0  0.5955173529111718  0.3074729852704187  0.9694012380375154  1.0000
  H   H8        1.0  0.40448264716725946  0.6925270148852115  0.030598762175782248  1.0000
  H   H9        1.0  0.7565884703536364  0.6834182437605334  0.2680034314906915  1.0000
  H   H10       1.0  0.24341152972557978  0.3165817563936706  0.7319965680654935  1.0000
  H   H11       1.0  0.6683359092467708  0.2780492609264011  0.25180937544835275  1.0000
  H   H12       1.0  0.33166409111481626  0.7219507384500853  0.7481906242482389  1.0000
  H   H13       1.0  0.708243285334375  0.4494885586266186  0.2206848810142364  1.0000
  H   H14       1.0  0.2917567147440562  0.5505114415290117  0.7793151191990615  1.0000
  H   H15       1.0  0.6417484766376851  0.47846176817660785  0.9369491846578206  1.0000
  H   H16       1.0  0.35825152344074596  0.5215382319790225  0.06305081555547719  1.0000
  H   H17       1.0  0.16759589736931932  0.4628193393867263  0.3555263129679437  1.0000
  H   H18       1.0  0.832404101786883  0.5371806607682553  0.644473686613333  1.0000
  H   H19       1.0  0.08390425353357882  0.45155060226033983  0.45941171665464386  1.0000
  H   H20       1.0  0.9160957465456372  0.5484493978938644  0.5405882829015412  1.0000
  H   H21       1.0  0.2536500046082199  0.43700094538268713  0.4604991970113711  1.0000
  H   H22       1.0  0.7463499957525825  0.5629990539952254  0.5395008033423333  1.0000
  H   H23       1.0  0.7199932601130273  0.6960039420267992  0.09213404979947756  1.0000
  H   H24       1.0  0.28000673996540393  0.3039960581288312  0.9078659504138202  1.0000
  H   H25       1.0  0.7901432092678178  0.5748834549957673  0.16843982040141223  1.0000
  H   H26       1.0  0.2098567908106134  0.42511654515986297  0.8315601798118856  1.0000
  H   H27       1.0  0.6188445659171989  0.6337070440000515  0.16517096398092665  1.0000
  H   H28       1.0  0.3811554341612323  0.3662929561555787  0.8348290362323711  1.0000
  H   H29       1.0  0.5704094342325128  0.14679979654435346  0.6793647026544076  1.0000
  H   H30       1.0  0.4295905658467032  0.8532002036098505  0.32063529690177744  1.0000
  H   H31       1.0  0.7164589520469201  0.36787937595020703  0.7739198236103683  1.0000
  H   H32       1.0  0.28354104803151114  0.6321206242054231  0.2260801766029296  1.0000
  H   H33       1.0  0.5491470286308867  0.5131597590643421  0.6838797674379513  1.0000
  H   H34       1.0  0.45085297144754455  0.4868402410912881  0.3161202327753465  1.0000
  H   H35       1.0  0.6697929629216368  0.6474815116074043  0.7692319785813934  1.0000
  H   H36       1.0  0.3302070374391656  0.3525184877705083  0.23076802177231112  1.0000
  H   H37       1.0  0.055738400329579864  0.6844007825106457  0.9099355772177221  1.0000
  H   H38       1.0  0.9442615997488515  0.3155992176449845  0.09006442299557565  1.0000
  H   H39       1.0  0.39838973653616827  0.2944761905507822  0.5903674938660355  1.0000
  H   H40       1.0  0.601610263824634  0.7055238088271304  0.40963250648766897  1.0000
  H   H41       1.0  0.03630049799747403  0.5093041736366564  0.9132077047589608  1.0000
  H   H42       1.0  0.9636995020809572  0.4906958265189738  0.08679229545433692  1.0000
  H   H43       1.0  0.6894005539853507  0.8233650335588935  0.7682835988696395  1.0000
  H   H44       1.0  0.3105994463754519  0.17663496581901894  0.23171640148406494  1.0000
  H   H45       1.0  0.28618385092611215  0.6355320086593244  0.5190898276980113  1.0000
  H   H46       1.0  0.713816149153104  0.3644679914948797  0.48091017185817375  1.0000
  H   H47       1.0  0.455309462822483  0.6048626799123616  0.5461005354836409  1.0000
  H   H48       1.0  0.5446905372559482  0.39513732024326853  0.4538994647296569  1.0000
  H   H49       1.0  0.3394193212368359  0.6170936718436376  0.633142080943541  1.0000
  H   H50       1.0  0.6605806779193664  0.38290632831134414  0.3668579186377358  1.0000
  H   H51       1.0  0.022680730433269406  0.3771673475755566  0.8428030221208737  1.0000
  H   H52       1.0  0.977319269927533  0.622832651802356  0.15719697823283071  1.0000
  H   H53       1.0  0.8962381034547893  0.31731730007884446  0.8649669672096839  1.0000
  H   H54       1.0  0.10376189690679805  0.6826826992976419  0.13503303248690776  1.0000
  H   H55       1.0  0.9410194724571272  0.37680007210749605  0.9480217349936573  1.0000
  H   H56       1.0  0.058980527621304  0.6231999280481342  0.051978265219640496  1.0000
  C   C1        1.0  0.9460165698737081  0.004975391465433518  0.026519007980388323  1.0000
  C   C2        1.0  0.05398343020550786  0.9950246086887707  0.9734809915757965  1.0000
  C   C3        1.0  0.7397902889607202  0.07698532357650725  0.11055070713118835  1.0000
  C   C4        1.0  0.26020971111771085  0.923014676579123  0.8894492930821095  1.0000
  C   C5        1.0  0.7769804422406489  0.9711615677068868  0.1427066705652974  1.0000
  C   C6        1.0  0.22301955783778224  0.028838432448743522  0.8572933296480004  1.0000
  C   C7        1.0  0.8278669774022904  0.8093853653987569  0.2838710521043614  1.0000
  C   C8        1.0  0.17213302267614075  0.1906146347568734  0.7161289481089363  1.0000
  C   C9        1.0  0.6301597599539108  0.28173244923589225  0.11306414554107513  1.0000
  C   C10       1.0  0.3698402401253053  0.7182675509183117  0.8869358540151099  1.0000
  C   C11       1.0  0.03663386478494394  0.6549744613934365  0.37720007912988773  1.0000
  C   C12       1.0  0.9633661352942722  0.34502553876076747  0.6227999204262973  1.0000
  C   C13       1.0  0.9247439005216779  0.8375719403735268  0.3222124104465858  1.0000
  C   C14       1.0  0.07525609955675314  0.16242805978210362  0.6777875897667119  1.0000
  C   C15       1.0  0.02851398310621974  0.7606706519034148  0.3681479818056322  1.0000
  C   C16       1.0  0.9714860169722116  0.2393293482522155  0.6318520184076656  1.0000
  C   C17       1.0  0.9377309914824229  0.6266984957003621  0.34172561238047006  1.0000
  C   C18       1.0  0.062269008596793046  0.37330150445384214  0.6582743871757148  1.0000
  C   C19       1.0  0.6220609364696026  0.3381504387171868  0.024012740086958785  1.0000
  C   C20       1.0  0.3779390636088286  0.6618495614384434  0.9759872601263391  1.0000
  C   C21       1.0  0.8340371288125424  0.7045745443613698  0.29532767788512576  1.0000
  C   C22       1.0  0.1659628712666737  0.29542545579283436  0.7046723216710593  1.0000
  C   C23       1.0  0.6608818044202817  0.32257464934144564  0.1831684512881476  1.0000
  C   C24       1.0  0.33911819565893453  0.6774253508127585  0.8168315482680374  1.0000
  C   C25       1.0  0.6751622907059697  0.47558002449024056  0.07637523303882669  1.0000
  C   C26       1.0  0.32483770937246154  0.5244199756653897  0.9236247671744711  1.0000
  C   C27       1.0  0.6827648433175392  0.4196566001063074  0.1653106626140322  1.0000
  C   C28       1.0  0.31723515676167685  0.5803434000478966  0.8346893369421529  1.0000
  C   C29       1.0  0.6465925751085982  0.4338214138740813  0.005529818360807707  1.0000
  C   C30       1.0  0.3534074249706178  0.5661785862801227  0.9944701811953774  1.0000
  C   C31       1.0  0.16219377492194564  0.4777724176228732  0.4239566374808942  1.0000
  C   C32       1.0  0.8378062251564856  0.5222275825327571  0.5760433627324035  1.0000
  C   C33       1.0  0.7061600339782198  0.6211167014694454  0.12438466192878857  1.0000
  C   C34       1.0  0.2938399651771977  0.37888329868696236  0.875615338309601  1.0000
  C   C35       1.0  0.5506860086518305  0.0024335495018651516  0.9712289390380284  1.0000
  C   C36       1.0  0.4493139917089719  0.9975664498760475  0.028771061315676028  1.0000
  C   C37       1.0  0.7538160712055143  0.9570564703505228  0.877043582786252  1.0000
  C   C38       1.0  0.2461839288737018  0.04294352980368143  0.1229564167699329  1.0000
  C   C39       1.0  0.7055521915182221  0.06392465628834544  0.8555715322192998  1.0000
  C   C40       1.0  0.29444780856099384  0.9360753438658588  0.14442846733688525  1.0000
  C   C41       1.0  0.6536219077098101  0.2478336254827133  0.7330913453142582  1.0000
  C   C42       1.0  0.3463780923686212  0.7521663746729168  0.2669086548990395  1.0000
  C   C43       1.0  0.8513802451907158  0.5673812871227831  0.8408224926069285  1.0000
  C   C44       1.0  0.14861975488771556  0.43261871303284705  0.1591775076063693  1.0000
  C   C45       1.0  0.5636379041913929  0.22703767962814164  0.6811068882946596  1.0000
  C   C46       1.0  0.4363620958870382  0.7729623205274886  0.31889311191863823  1.0000
  C   C47       1.0  0.8724755685071384  0.7648432352369627  0.8409670642371403  1.0000
  C   C48       1.0  0.12752443157207768  0.23515676491724138  0.1590329353190448  1.0000
  C   C49       1.0  0.6468169746286363  0.3507189117440239  0.734431272623917  1.0000
  C   C50       1.0  0.3531830254497948  0.6492810884116064  0.2655687275893807  1.0000
  C   C51       1.0  0.46265700581212915  0.4121287193550454  0.631572197536616  1.0000
  C   C52       1.0  0.537342994266302  0.5878712808005848  0.36842780267668185  1.0000
  C   C53       1.0  0.5518519191261788  0.43341400089658855  0.6835800605862703  1.0000
  C   C54       1.0  0.4481480809522524  0.5665859992590416  0.3164199396270275  1.0000
  C   C55       1.0  0.7528300366942088  0.6563549588531874  0.8013733343876746  1.0000
  C   C56       1.0  0.24716996338422237  0.3436450413024429  0.1986266658256232  1.0000
  C   C57       1.0  0.9700268100571742  0.6762586528080792  0.8806975145754892  1.0000
  C   C58       1.0  0.029973190304413238  0.3237413465684072  0.11930248512110243  1.0000
  C   C59       1.0  0.4683814996672004  0.30851908266169425  0.6317668217530455  1.0000
  C   C60       1.0  0.5316184997705882  0.6914809167169959  0.36823317862575067  1.0000
  C   C61       1.0  0.9597664163068608  0.5772952012402519  0.8811828125499352  1.0000
  C   C62       1.0  0.040233584053941604  0.4227047981376605  0.1188171878037692  1.0000
  C   C63       1.0  0.763940328505615  0.7542329476763935  0.8006957913515357  1.0000
  C   C64       1.0  0.2360596715728164  0.24576705247923686  0.1993042088617621  1.0000
  C   C65       1.0  0.36302149611581  0.5922340790537163  0.5689627034585162  1.0000
  C   C66       1.0  0.6369785039626211  0.40776592110191395  0.43103729675478153  1.0000
  C   C67       1.0  0.9297871624199974  0.38173914101711637  0.8756528708939778  1.0000
  C   C68       1.0  0.07021283765921865  0.6182608591370877  0.12434712866220733  1.0000
  C   C69       1.0  0.4517108472345871  0.9190710904497165  0.6017505894858765  1.0000
  C   C70       1.0  0.5482891528438439  0.08092890970591375  0.3982494107274213  1.0000
  C   C71       1.0  0.12209099148987859  0.11475305419426511  0.4304667453570823  1.0000
  C   C72       1.0  0.8779090085885526  0.8852469459613651  0.5695332548562154  1.0000
  C   C73       1.0  0.3446093311901386  0.9824854869961015  0.5450069100038896  1.0000
  C   C74       1.0  0.6553906688882926  0.017514513159528743  0.4549930902094083  1.0000
  C   C75       1.0  0.26389104584279965  0.9418803920903794  0.5011921145848465  1.0000
  C   C76       1.0  0.7361089542356316  0.05811960806525085  0.49880788562845146  1.0000
  C   C77       1.0  0.5301559984209244  0.957913277853361  0.6482544494983918  1.0000
  C   C78       1.0  0.46984400165750667  0.042086722302269126  0.3517455507149059  1.0000
  C   C79       1.0  0.15991709280029232  0.004067266145422855  0.4472804898989784  1.0000
  C   C80       1.0  0.840082907278139  0.9959327340102073  0.5527195103143194  1.0000
  C   C81       1.0  0.3085067656425916  0.09296077908157743  0.5270171295103939  1.0000
  C   C82       1.0  0.6914932344358395  0.9070392210740529  0.4729828707029038  1.0000
  C   C83       1.0  0.20392417958495765  0.1552732896842547  0.4732834366991711  1.0000
  C   C84       1.0  0.7960758204934738  0.8447267104713755  0.5267165635141268  1.0000
  C   C85       1.0  0.01090638019541214  0.1781114422587912  0.37735682279415167  1.0000
  C   C86       1.0  0.9890936198838038  0.8218885578954128  0.6226431767620334  1.0000
  C   C87       1.0  0.9264434186676672  0.13733611685885216  0.3382346822591812  1.0000
  C   C88       1.0  0.07355658141076399  0.862663883296778  0.6617653179541166  1.0000
  C   C89       1.0  0.4910315034035519  0.8092977313563617  0.6192352394020008  1.0000
  C   C90       1.0  0.5089684969580354  0.1907022680201248  0.3807647602945909  1.0000
  C   C91       1.0  0.9729587725186669  0.2880700820768219  0.3573751982921868  1.0000
  C   C92       1.0  0.02704122756054911  0.7119299180773823  0.6426248012639982  1.0000
  N   N1        1.0  0.6024348375738351  0.9805924519646843  0.6898941984690126  1.0000
  N   N2        1.0  0.39756516250459617  0.01940754819094598  0.31010580174428526  1.0000
  N   N3        1.0  0.8516729940898354  0.10947076600739121  0.30383196603711254  1.0000
  N   N4        1.0  0.14832700598859574  0.8905292341482391  0.6961680341761853  1.0000
  N   N5        1.0  0.532895043959784  0.7184254388764758  0.6375461971341605  1.0000
  N   N6        1.0  0.46710495611943204  0.2815745612777281  0.3624538024220245  1.0000
  N   N7        1.0  0.9331804309175682  0.37890279590429154  0.3362205846944066  1.0000
  N   N8        1.0  0.0668195691608631  0.6210972042513386  0.6637794155188912  1.0000
  O   O1        1.0  0.14328494527684474  0.5862265765670891  0.4214464158907127  1.0000
  O   O2        1.0  0.8567150550839575  0.41377342281082347  0.5785535844629918  1.0000
  O   O3        1.0  0.6931674741790127  0.5716586424816019  0.052598382318216425  1.0000
  O   O4        1.0  0.3068325259002033  0.4283413576726023  0.9474016172379687  1.0000
  O   O5        1.0  0.8329589839869492  0.4748004242131116  0.8354011748103101  1.0000
  O   O6        1.0  0.16704101609148178  0.5251995759425186  0.16459882540298776  1.0000
  O   O7        1.0  0.3683783203963442  0.48504534904255026  0.5778133197025633  1.0000
  O   O8        1.0  0.631621678759858  0.5149546511124314  0.4221866798787134  1.0000
  F   F1        1.0  0.37798411813767824  0.1399862287769476  0.566630453642155  1.0000
  F   F2        1.0  0.6220158813001104  0.8600137706017424  0.4333695467366411  1.0000
  F   F3        1.0  0.17780863756924534  0.2593467475278149  0.4627578520372161  1.0000
  F   F4        1.0  0.8221913625091858  0.7406532526278153  0.5372421481760816  1.0000
  F   F5        1.0  0.2895063926721208  0.837641691804788  0.511628057092964  1.0000
  F   F6        1.0  0.7104936074070951  0.16235830834941606  0.48837194246322096  1.0000
  F   F7        1.0  0.08880325295908299  0.9566443180386667  0.4099382039845403  1.0000
  F   F8        1.0  0.9111967471193482  0.04335568211696357  0.5900617962287574  1.0000
  S   S1        1.0  0.8378216082703976  0.12494372811249391  0.030513438810262316  1.0000
  S   S2        1.0  0.16217839180803353  0.8750562720431362  0.9694865614030355  1.0000
  S   S3        1.0  0.9124572489333008  0.8993645568263294  0.09476366190809928  1.0000
  S   S4        1.0  0.08754275114513035  0.10063544332930083  0.9052363383051986  1.0000
  S   S5        1.0  0.5969912068908628  0.16007600107678216  0.13925988947909632  1.0000
  S   S6        1.0  0.4030087931875686  0.839923999078848  0.8607401107342015  1.0000
  S   S7        1.0  0.6951406075683404  0.905584844296376  0.22241108149817276  1.0000
  S   S8        1.0  0.304859392792462  0.0944151550815367  0.7775889188555316  1.0000
  S   S9        1.0  0.6688524048913044  0.8920537781820295  0.9553657007556307  1.0000
  S   S10       1.0  0.33114759547028283  0.10794622119445696  0.04463429894096099  1.0000
  S   S11       1.0  0.5658126598362282  0.11861189428140888  0.9093330906213227  1.0000
  S   S12       1.0  0.4341873393191894  0.881388105874999  0.09066690961706689  1.0000
  S   S13       1.0  0.784489407935141  0.14371641362106527  0.7883240442588954  1.0000
  S   S14       1.0  0.21551059214329027  0.8562835865345649  0.21167595595440242  1.0000
  S   S15       1.0  0.8957333561161912  0.8886211356793918  0.8346640466498532  1.0000
  S   S16       1.0  0.10426664396224017  0.11137886447623822  0.16533595356344466  1.0000
