data_image0
_chemical_formula_structural       H72C100N8F8S16
_chemical_formula_sum              "H72 C100 N8 F8 S16"
_cell_length_a       8.630633314648623
_cell_length_b       11.928839824164651
_cell_length_c       23.74325186229667
_cell_angle_alpha    88.75142928046881
_cell_angle_beta     80.78166380875368
_cell_angle_gamma    75.86065866759535

_space_group_name_H-M_alt    "P 1"
_space_group_IT_number       1

loop_
  _space_group_symop_operation_xyz
  'x, y, z'

loop_
  _atom_site_type_symbol
  _atom_site_label
  _atom_site_symmetry_multiplicity
  _atom_site_fract_x
  _atom_site_fract_y
  _atom_site_fract_z
  _atom_site_occupancy
  H   H1        1.0  0.9271395719641234  0.8274141911621746  0.1752688366135408  1.0000
  H   H2        1.0  0.07286042878185765  0.17258580883410282  0.8247311634569428  1.0000
  H   H3        1.0  0.3767585217075636  0.9110121513306699  0.1931577130190203  1.0000
  H   H4        1.0  0.6232414790384175  0.08898784866560755  0.8068422870514632  1.0000
  H   H5        1.0  0.15848713350022153  0.47391115517951793  0.07812526323641185  1.0000
  H   H6        1.0  0.8415128672503044  0.5260888448161832  0.9218747364126441  1.0000
  H   H7        1.0  0.3125094379362318  0.5687495955536377  0.23034867760634203  1.0000
  H   H8        1.0  0.6874905628097495  0.43125040444263973  0.7696513224641417  1.0000
  H   H9        1.0  0.479813061336857  0.2516698362572519  0.1786089300003454  1.0000
  H   H10       1.0  0.5201869382370331  0.7483301637468688  0.821391069715573  1.0000
  H   H11       1.0  0.6153144256337695  0.5447726558803548  0.09366282366399703  1.0000
  H   H12       1.0  0.3846855739355761  0.4552273441243422  0.9063371764733488  1.0000
  H   H13       1.0  0.8921433735170358  0.6336343725848107  0.2376782659436612  1.0000
  H   H14       1.0  0.10785662605230985  0.36636562741988626  0.7623217341936848  1.0000
  H   H15       1.0  0.06755288677617206  0.5186149489158867  0.22196902760985285  1.0000
  H   H16       1.0  0.9324471127931737  0.48138505108881025  0.7780309725274931  1.0000
  H   H17       1.0  0.9698526999474727  0.5908394464251048  0.16575620429602617  1.0000
  H   H18       1.0  0.030147299621872896  0.40916055357959236  0.8342437958413198  1.0000
  H   H19       1.0  0.6174709072962589  0.6542600588536561  0.1870064191722622  1.0000
  H   H20       1.0  0.38252909227308685  0.3457399411510409  0.8129935809650837  1.0000
  H   H21       1.0  0.5423133077537226  0.6363250736289553  0.2599267343468268  1.0000
  H   H22       1.0  0.4576866918201678  0.36367492637516546  0.7400732653690915  1.0000
  H   H23       1.0  0.5794618378874087  0.7712975418461583  0.2360671367438824  1.0000
  H   H24       1.0  0.4205381616864815  0.22870245815796253  0.7639328629720359  1.0000
  H   H25       1.0  0.7146426845840013  0.42499506358562683  0.19918059677788127  1.0000
  H   H26       1.0  0.2853573161619799  0.5750049364106505  0.8008194032926024  1.0000
  H   H27       1.0  0.8228400719832973  0.38025963160028287  0.13052209861968103  1.0000
  H   H28       1.0  0.17715992758604832  0.6197403684044142  0.8694779015176649  1.0000
  H   H29       1.0  0.7526411310437621  0.2784045100467206  0.17748401439226447  1.0000
  H   H30       1.0  0.24735886852558364  0.7215954899579764  0.8225159857450814  1.0000
  H   H31       1.0  0.28001215506838917  0.6153474641840992  0.012339384530050321  1.0000
  H   H32       1.0  0.7199878445009565  0.38465253582059783  0.9876606156072957  1.0000
  H   H33       1.0  0.45333941496136493  0.6555894709695661  0.029114820372569187  1.0000
  H   H34       1.0  0.5466605846079807  0.34441052903513086  0.9708851797647767  1.0000
  H   H35       1.0  0.2636422112075144  0.6998047779074165  0.07459363062652272  1.0000
  H   H36       1.0  0.7363577883618312  0.3001952220972806  0.9254063695108233  1.0000
  H   H37       1.0  0.061056695553473074  0.3820017310904136  0.3091777380925769  1.0000
  H   H38       1.0  0.9389433051970528  0.6179982689052876  0.6908222615564792  1.0000
  H   H39       1.0  0.5856781378653141  0.31735277724175437  0.3216012147295996  1.0000
  H   H40       1.0  0.41432186170857604  0.6826472227623663  0.6783987849863188  1.0000
  H   H41       1.0  0.16465528474573168  0.752216439744682  0.32792758467364747  1.0000
  H   H42       1.0  0.8353447160002495  0.24778356025159545  0.6720724153968362  1.0000
  H   H43       1.0  0.7130129950407513  0.9586533538948075  0.4174278808265982  1.0000
  H   H44       1.0  0.2869870057097743  0.041346646100893475  0.5825721188224576  1.0000
  H   H45       1.0  0.010775516874999782  0.03719237124228361  0.28483400908409806  1.0000
  H   H46       1.0  0.9892244826943459  0.9628076287624133  0.715165991053248  1.0000
  H   H47       1.0  0.15853492275599093  0.054966497095357676  0.42494566180155485  1.0000
  H   H48       1.0  0.8414650768133548  0.9450335029093394  0.575054338335791  1.0000
  H   H49       1.0  0.2969135916090568  0.23068465876241406  0.2735661732030287  1.0000
  H   H50       1.0  0.7030864079602889  0.7693153412422828  0.7264338269343174  1.0000
  H   H51       1.0  0.2793050170718501  0.09213053276797853  0.25363789139983745  1.0000
  H   H52       1.0  0.7206949824974955  0.9078694672367185  0.7463621087375084  1.0000
  H   H53       1.0  0.27865829824540356  0.12542328061206343  0.3263462354115363  1.0000
  H   H54       1.0  0.7213417013239422  0.8745767193926336  0.6736537647258097  1.0000
  H   H55       1.0  0.5881512739133484  0.09176697736016297  0.3331828073119414  1.0000
  H   H56       1.0  0.41184872683263296  0.9082330226361145  0.6668171927585421  1.0000
  H   H57       1.0  0.7519424298405133  0.9974682206861841  0.2887293931231901  1.0000
  H   H58       1.0  0.24805756973337695  0.002531779317936626  0.711270606592728  1.0000
  H   H59       1.0  0.6173379917213588  0.10897587591818761  0.25818426407025824  1.0000
  H   H60       1.0  0.38266200785253124  0.8910241240859331  0.7418157356456601  1.0000
  H   H61       1.0  0.7903283197858773  0.19620360261431077  0.4289040840151096  1.0000
  H   H62       1.0  0.20967168096010388  0.8037963973819666  0.5710959160553741  1.0000
  H   H63       1.0  0.9082324699274192  0.15773511026734205  0.48461241909419567  1.0000
  H   H64       1.0  0.0917675296419265  0.8422648897373548  0.5153875810431502  1.0000
  H   H65       1.0  0.7256440614736045  0.11267203708003816  0.486445108328499  1.0000
  H   H66       1.0  0.2743559392723767  0.8873279629162394  0.5135548917419848  1.0000
  H   H67       1.0  0.42597485994939693  0.791231728558244  0.36378233385102965  1.0000
  H   H68       1.0  0.5740251396199486  0.20876827144645296  0.6362176662863163  1.0000
  H   H69       1.0  0.4108525248822333  0.9362101832334309  0.38503583283759724  1.0000
  H   H70       1.0  0.5891474758682926  0.06378981676227036  0.6149641668114587  1.0000
  H   H71       1.0  0.3951203538927514  0.903666748894098  0.31395896573189475  1.0000
  H   H72       1.0  0.6048796468577744  0.09633325110160301  0.6860410339171611  1.0000
  C   C1        1.0  0.44085122184746983  0.022380777717813667  0.023400246080146604  1.0000
  C   C2        1.0  0.5591487777218759  0.9776192222868832  0.9765997540571992  1.0000
  C   C3        1.0  0.21608778502249157  0.04781956986433785  0.11049196882743231  1.0000
  C   C4        1.0  0.7839122157234898  0.9521804301319394  0.8895080312430512  1.0000
  C   C5        1.0  0.25514177479698313  0.15321944434436313  0.1035832972681355  1.0000
  C   C6        1.0  0.7448582259489981  0.8467805556519143  0.896416702802348  1.0000
  C   C7        1.0  0.14587523632676483  0.8799589191408597  0.18242002914018995  1.0000
  C   C8        1.0  0.8541247632471255  0.12004108086326096  0.8175799705757283  1.0000
  C   C9        1.0  0.04851033767860232  0.8013181296342755  0.1863368838047297  1.0000
  C   C10       1.0  0.9514896618952877  0.19868187036984516  0.8136631159111886  1.0000
  C   C11       1.0  0.3029583081091013  0.8481660897982028  0.1958128705932121  1.0000
  C   C12       1.0  0.6970416914647891  0.15183391020591788  0.8041871291227062  1.0000
  C   C13       1.0  0.3082669541820528  0.357438443042362  0.13004958262956914  1.0000
  C   C14       1.0  0.6917330453872929  0.6425615569623349  0.8699504175077768  1.0000
  C   C15       1.0  0.27210334112257656  0.453073668487407  0.09517037236196968  1.0000
  C   C16       1.0  0.7278966584467692  0.5469263315172901  0.9048296277753761  1.0000
  C   C17       1.0  0.364964675440268  0.7348786907600449  0.21212769657032754  1.0000
  C   C18       1.0  0.6350353253102577  0.26512130923565613  0.7878723030787285  1.0000
  C   C19       1.0  0.10835623395023249  0.6878367933057203  0.20368948498373265  1.0000
  C   C20       1.0  0.8916437668002932  0.31216320668998077  0.7963105146653233  1.0000
  C   C21       1.0  0.26605400476275165  0.6564279787655493  0.21618053545183738  1.0000
  C   C22       1.0  0.7339459959877739  0.34357202123015196  0.7838194641972186  1.0000
  C   C23       1.0  0.4535164929934231  0.32808877883940696  0.1523885085963084  1.0000
  C   C24       1.0  0.5464835065759225  0.6719112211652901  0.8476114915410375  1.0000
  C   C25       1.0  0.38304562456485164  0.5218877617163802  0.08218862470306801  1.0000
  C   C26       1.0  0.6169543761811296  0.47811223827989713  0.9178113753674156  1.0000
  C   C27       1.0  0.528827440075084  0.4911535170441208  0.10392380444412724  1.0000
  C   C28       1.0  0.47117255949880615  0.50884648296  0.896076195271791  1.0000
  C   C29       1.0  0.5660756485443288  0.3952651246151697  0.139010255173821  1.0000
  C   C30       1.0  0.4339243510250169  0.6047348753895273  0.860989744963525  1.0000
  C   C31       1.0  0.004473134308431598  0.6027275654889792  0.207421370120226  1.0000
  C   C32       1.0  0.9955268652609139  0.39727243451571786  0.7925786300171199  1.0000
  C   C33       1.0  0.5349132406416454  0.6974624577003843  0.2247200672112861  1.0000
  C   C34       1.0  0.46508676010433586  0.30253754229589297  0.7752799328591976  1.0000
  C   C35       1.0  0.722303102285034  0.3675882288865372  0.16262458384490938  1.0000
  C   C36       1.0  0.27769689728885616  0.6324117711175835  0.8373754158710088  1.0000
  C   C37       1.0  0.34342442663353656  0.6285492112296872  0.04721867213535259  1.0000
  C   C38       1.0  0.6565755741124447  0.3714507887665902  0.952781327935131  1.0000
  C   C39       1.0  0.9647715123733182  0.5198785654321152  0.4759407607264728  1.0000
  C   C40       1.0  0.03522848720057222  0.48012143457200557  0.5240592389894455  1.0000
  C   C41       1.0  0.8281727434150263  0.5364965278414302  0.3866930723988328  1.0000
  C   C42       1.0  0.1718272561543193  0.46350347216326687  0.613306927738513  1.0000
  C   C43       1.0  0.8649096460150572  0.6412723622436047  0.3926751266751319  1.0000
  C   C44       1.0  0.1350903547309242  0.35872763775267275  0.6073248733953518  1.0000
  C   C45       1.0  0.8165772985935831  0.36001086697943707  0.3180190461346696  1.0000
  C   C46       1.0  0.1834227009757625  0.63998913302526  0.6819809540026764  1.0000
  C   C47       1.0  0.9855487372095008  0.321279123810367  0.30766264723359765  1.0000
  C   C48       1.0  0.014451263536480515  0.6787208761859104  0.692337352836886  1.0000
  C   C49       1.0  0.7169736963002148  0.28514735891896126  0.314150675070226  1.0000
  C   C50       1.0  0.28302630327367545  0.7148526410851594  0.6858493246456923  1.0000
  C   C51       1.0  0.931782948103257  0.8486035318213161  0.3711976791316745  1.0000
  C   C52       1.0  0.06821705146608868  0.15139646818338076  0.6288023210056713  1.0000
  C   C53       1.0  0.7868154476089723  0.16784361640761017  0.30080835595029687  1.0000
  C   C54       1.0  0.21318455196037348  0.8321563835970868  0.699191644187049  1.0000
  C   C55       1.0  0.0567145399512001  0.20417677092072112  0.295908076373093  1.0000
  C   C56       1.0  0.9432854607993257  0.79582322907498  0.704091923275963  1.0000
  C   C57       1.0  0.09997528154154837  0.826869957849106  0.3552112763334805  1.0000
  C   C58       1.0  0.9000247180277974  0.173130042155591  0.6447887238038655  1.0000
  C   C59       1.0  0.8439664757745566  0.9437137378148437  0.40578621031575035  1.0000
  C   C60       1.0  0.15603352497142475  0.056286262181433656  0.5942137897547333  1.0000
  C   C61       1.0  0.9555261258061801  0.1290129618130081  0.2932302230989383  1.0000
  C   C62       1.0  0.04447387376316565  0.8709870381916889  0.7067697770384077  1.0000
  C   C63       1.0  0.9254611997614719  0.019867124186577302  0.42488568790483083  1.0000
  C   C64       1.0  0.07453879980787372  0.9801328758181197  0.5751143122325151  1.0000
  C   C65       1.0  0.18313650358761846  0.9011539372600317  0.3752974166471041  1.0000
  C   C66       1.0  0.8168634971583628  0.0988460627362457  0.6247025834233796  1.0000
  C   C67       1.0  0.09407859431339859  0.9962158349220651  0.4099222450252195  1.0000
  C   C68       1.0  0.9059214052559469  0.003784165082631959  0.5900777551121265  1.0000
  C   C69       1.0  0.23754475650192003  0.16061174907170453  0.2866021929390441  1.0000
  C   C70       1.0  0.7624552430719702  0.8393882509324162  0.7133978067768743  1.0000
  C   C71       1.0  0.6807174587205396  0.0871840738014466  0.29508617544678883  1.0000
  C   C72       1.0  0.3192825408533507  0.9128159262026742  0.7049138242691294  1.0000
  C   C73       1.0  0.8326292489471613  0.12708080839602004  0.4584505977094318  1.0000
  C   C74       1.0  0.16737075062672896  0.8729191916081008  0.5415494020064865  1.0000
  C   C75       1.0  0.363531501995242  0.8817658399960662  0.3588954598486634  1.0000
  C   C76       1.0  0.6364684975741036  0.11823416000863088  0.6411045402886825  1.0000
  C   C77       1.0  0.49052465375459137  0.38721276766716145  0.5074475563639872  1.0000
  C   C78       1.0  0.5094753458147542  0.6127872323375356  0.4925524437733587  1.0000
  C   C79       1.0  0.563345063019191  0.43854288907382594  0.5438842852115601  1.0000
  C   C80       1.0  0.4366549365501548  0.5614571109308709  0.45611571492578584  1.0000
  C   C81       1.0  0.4254470874095247  0.44495243509809895  0.4606149328128181  1.0000
  C   C82       1.0  0.574552912159821  0.555047564906598  0.5393850673245277  1.0000
  C   C83       1.0  0.35589679169076904  0.39098705666509687  0.4210833551313626  1.0000
  C   C84       1.0  0.644103209055212  0.6090129433311806  0.578916644939121  1.0000
  C   C85       1.0  0.29958390083091085  0.44561764135821214  0.3724454562316036  1.0000
  C   C86       1.0  0.7004160999150704  0.5543823586380652  0.6275545438388801  1.0000
  C   C87       1.0  0.34385181567127865  0.27549196309361734  0.4256189698225961  1.0000
  C   C88       1.0  0.656148183898067  0.7245080369110797  0.5743810303147497  1.0000
  C   C89       1.0  0.10536012592080148  0.9283616409757381  0.9590095737350444  1.0000
  C   C90       1.0  0.8946398736485441  0.07163835902895889  0.04099042640230155  1.0000
  C   C91       1.0  0.9982210631331165  0.8853361424617092  0.9977962946833476  1.0000
  C   C92       1.0  0.001778936440773827  0.1146638575424114  0.0022037050325705624  1.0000
  C   C93       1.0  0.8872407891449849  0.9541273276028108  0.041537573423102964  1.0000
  C   C94       1.0  0.11275921042890538  0.045872672401309794  0.9584624262928153  1.0000
  C   C95       1.0  0.6722148746781372  0.9756130215588578  0.12807173017881196  1.0000
  C   C96       1.0  0.32778512489120853  0.024386978445839317  0.8719282699585339  1.0000
  C   C97       1.0  0.7770748998662222  0.9097576040864218  0.08240172059809693  1.0000
  C   C98       1.0  0.22292510087975884  0.09024239590985558  0.9175982794723867  1.0000
  C   C99       1.0  0.7632225647954313  0.7946768719771826  0.08114799378144559  1.0000
  C   C100      1.0  0.2367774359550946  0.2053231280185185  0.9188520058676105  1.0000
  N   N1        1.0  0.24989565359639693  0.4835578576117077  0.33097087110771756  1.0000
  N   N2        1.0  0.7501043459774933  0.516442142392413  0.6690291286082007  1.0000
  N   N3        1.0  0.3300324176554591  0.17990478054281436  0.42702820786682283  1.0000
  N   N4        1.0  0.6699675830905223  0.8200952194534631  0.5729717922036608  1.0000
  N   N5        1.0  0.5794716681463868  0.02338025910010585  0.16689983272527179  1.0000
  N   N6        1.0  0.4205283325995944  0.9766197408961715  0.8331001673452118  1.0000
  N   N7        1.0  0.7440546880712923  0.7004919961533936  0.08233942641676477  1.0000
  N   N8        1.0  0.255945312674689  0.2995080038428838  0.9176605736537188  1.0000
  F   F1        1.0  0.48297709200073774  0.27631007001764124  0.5175851203843967  1.0000
  F   F2        1.0  0.5170229087452436  0.7236899299786361  0.48241487968608676  1.0000
  F   F3        1.0  0.6256709549308225  0.37348740903844496  0.5861397861643491  1.0000
  F   F4        1.0  0.3743290446385233  0.626512590966252  0.4138602139729967  1.0000
  F   F5        1.0  0.20785846054250884  0.853394843022391  0.9198716076580005  1.0000
  F   F6        1.0  0.7921415390268369  0.14660515698230586  0.08012839247934554  1.0000
  F   F7        1.0  0.0032742160436482915  0.7713592764842606  0.9934690924798473  1.0000
  F   F8        1.0  0.9967257835256975  0.22864072352043635  0.006530907657498549  1.0000
  S   S1        1.0  0.3240972344149604  0.9401009993173312  0.061172684156921786  1.0000
  S   S2        1.0  0.6759027651589299  0.05989900068678947  0.9388273155589966  1.0000
  S   S3        1.0  0.40442715005391583  0.16346470820474782  0.046696245544607086  1.0000
  S   S4        1.0  0.5955728495154299  0.8365352917999491  0.9533037545927389  1.0000
  S   S5        1.0  0.06203153302899864  0.02359351978065592  0.16198997243504085  1.0000
  S   S6        1.0  0.937968466540347  0.9764064802240411  0.838010027702305  1.0000
  S   S7        1.0  0.16335963222798933  0.27315021268703715  0.1472331240302208  1.0000
  S   S8        1.0  0.8366403673413566  0.7268497873176597  0.8527668761071251  1.0000
  S   S9        1.0  0.9569602521272662  0.6574762786440009  0.45079034558132197  1.0000
  S   S10       1.0  0.04303974744207934  0.34252372136069603  0.549209654556024  1.0000
  S   S11       1.0  0.882149002799957  0.4347872197675442  0.4381461449968816  1.0000
  S   S12       1.0  0.11785099794602424  0.5652127802287331  0.5618538550736021  1.0000
  S   S13       1.0  0.722823774286755  0.5079146742101995  0.33460841926272505  1.0000
  S   S14       1.0  0.2771762252871352  0.4920853257939211  0.6653915804531932  1.0000
  S   S15       1.0  0.8231023428953336  0.755315855433248  0.34661017903336955  1.0000
  S   S16       1.0  0.1768976566740123  0.24468414457144888  0.6533898211039764  1.0000
