data_image0
_chemical_formula_structural       H36C60N8O12Br16
_chemical_formula_sum              "H36 C60 N8 O12 Br16"
_cell_length_a       6.687466243389785
_cell_length_b       25.392708272832465
_cell_length_c       10.474208465688271
_cell_angle_alpha    90.0
_cell_angle_beta     106.62715046789869
_cell_angle_gamma    90.0

_space_group_name_H-M_alt    "P 1"
_space_group_IT_number       1

loop_
  _space_group_symop_operation_xyz
  'x, y, z'

loop_
  _atom_site_type_symbol
  _atom_site_label
  _atom_site_symmetry_multiplicity
  _atom_site_fract_x
  _atom_site_fract_y
  _atom_site_fract_z
  _atom_site_occupancy
  H   H1        1.0  0.6732163176961272  0.005041453972712469  0.5959059315033856  1.0000
  H   H2        1.0  0.8267836820614015  0.5050414541138463  0.9040940681301671  1.0000
  H   H3        1.0  0.3267836813481484  0.9949585459157412  0.4040940675872505  1.0000
  H   H4        1.0  0.17321631742578036  0.4949585461684213  0.0959059319568539  1.0000
  H   H5        1.0  0.7280095643887257  0.24594171023031955  0.5825500067347308  1.0000
  H   H6        1.0  0.7719904358117095  0.7459417103714533  0.9174499938952067  1.0000
  H   H7        1.0  0.2719904365948743  0.754058289658134  0.4174499933547174  1.0000
  H   H8        1.0  0.22800956367547245  0.2540582895170003  0.0825500061918142  1.0000
  H   H9        1.0  0.6672887047620021  0.1590078292011038  0.8867551225450333  1.0000
  H   H10       1.0  0.8327112949955265  0.6590078293422375  0.6132448770885193  1.0000
  H   H11       1.0  0.3327112942822734  0.8409921706873498  0.1132448765456027  1.0000
  H   H12       1.0  0.16728870449165537  0.34099217094003  0.38675512299850173  1.0000
  H   H13       1.0  0.7505360949359603  0.027799605792945166  0.16080963636124457  1.0000
  H   H14       1.0  0.7494639051522557  0.5277996059340789  0.3391903634880604  1.0000
  H   H15       1.0  0.2494639060476397  0.9722003940955084  0.8391903637282037  1.0000
  H   H16       1.0  0.2505360943349263  0.47220039434818856  0.6608096365989606  1.0000
  H   H17       1.0  0.6717671957454021  0.27172130187397137  0.3602696836812625  1.0000
  H   H18       1.0  0.8282328028463956  0.771721302015105  0.13973031616561526  1.0000
  H   H19       1.0  0.3282328037417797  0.7282786980144823  0.6397303164057585  1.0000
  H   H20       1.0  0.17176719619787986  0.22827869787334854  0.8602696829250207  1.0000
  H   H21       1.0  0.6510889520576582  0.3691982193971096  0.3030971495437557  1.0000
  H   H22       1.0  0.8489110484734643  0.8691982195382434  0.19690285130193425  1.0000
  H   H23       1.0  0.3489110474295239  0.630801780491344  0.6969028505432653  1.0000
  H   H24       1.0  0.15108895251013568  0.13080178074402415  0.8030971487875139  1.0000
  H   H25       1.0  0.7085417391696489  0.43454791357586686  0.48851018558900783  1.0000
  H   H26       1.0  0.7914582609185671  0.9345479137170005  0.011489814260297125  1.0000
  H   H27       1.0  0.29145826181395107  0.5654520863125868  0.5114898145004404  1.0000
  H   H28       1.0  0.20854173856861488  0.06545208617145308  0.9885101858267239  1.0000
  H   H29       1.0  0.7820442823384861  0.30335429751073023  0.7625244188097109  1.0000
  H   H30       1.0  0.7179557178619489  0.803354297651864  0.7374755818202267  1.0000
  H   H31       1.0  0.2179557171486957  0.6966457023777234  0.23747558127731008  1.0000
  H   H32       1.0  0.28204428312165103  0.1966457022365897  0.2625244182692215  1.0000
  H   H33       1.0  0.7801856019283732  0.4020426242175399  0.7236094989181775  1.0000
  H   H34       1.0  0.719814398272062  0.9020426239648599  0.7763905017117602  1.0000
  H   H35       1.0  0.21981439755880883  0.5979573760647275  0.2763905011688435  1.0000
  H   H36       1.0  0.28018560121511993  0.0979573759235938  0.22360949837526095  1.0000
  C   C1        1.0  0.7007061793263263  0.14471834199472297  0.9892536847006489  1.0000
  C   C2        1.0  0.7992938208741088  0.6447183417420429  0.5107463159292889  1.0000
  C   C3        1.0  0.29929382016085565  0.8552816582875444  0.010746315386372229  1.0000
  C   C4        1.0  0.20070618010949112  0.3552816581464107  0.4892536841601594  1.0000
  C   C5        1.0  0.7048038101716343  0.09047684694814664  0.01536338847355203  1.0000
  C   C6        1.0  0.7951961899165815  0.5904768470892804  0.484636611375753  1.0000
  C   C7        1.0  0.29519619081196546  0.909523152940307  0.984636611615896  1.0000
  C   C8        1.0  0.20480380957060043  0.4095231527991733  0.5153633887112681  1.0000
  C   C9        1.0  0.7491483487541558  0.07019674234225234  0.1450664587187448  1.0000
  C   C10       1.0  0.7508516513340602  0.5701967420895723  0.35493354113056014  1.0000
  C   C11       1.0  0.25085165073302623  0.9298032579400151  0.8549335413682763  1.0000
  C   C12       1.0  0.24914834771021535  0.4298032577988814  0.6450664579600759  1.0000
  C   C13       1.0  0.7985929926109624  0.10370429462293276  0.25404312543518026  1.0000
  C   C14       1.0  0.7014070074772537  0.6037042943702526  0.24595687441412473  1.0000
  C   C15       1.0  0.20140700687621962  0.8962957056593348  0.7459568746518407  1.0000
  C   C16       1.0  0.29859299350634627  0.3962957055182009  0.7540431256753235  1.0000
  C   C17       1.0  0.8349345999816418  0.08125347709395207  0.3862015652799426  1.0000
  C   C18       1.0  0.6650654001065741  0.5812534772350858  0.11379843456936233  1.0000
  C   C19       1.0  0.16506539950554017  0.9187465227945015  0.6137984348070784  1.0000
  C   C20       1.0  0.3349346008770258  0.41874652265336776  0.8862015655200858  1.0000
  C   C21       1.0  0.9950649676119167  0.08523486099809295  0.49988620064106315  1.0000
  C   C22       1.0  0.5049350324762995  0.5852348611392267  0.00011379920824179082  1.0000
  C   C23       1.0  0.00493503187526541  0.9147651388903607  0.5001137994459578  1.0000
  C   C24       1.0  0.49506496701088265  0.4147651391430408  0.9998862008787793  1.0000
  C   C25       1.0  0.9507576766954783  0.05096182046026603  0.606326724136562  1.0000
  C   C26       1.0  0.5492423230620503  0.5509618206013998  0.8936732754969906  1.0000
  C   C27       1.0  0.04924232234879722  0.9490381794281876  0.3936732749540741  1.0000
  C   C28       1.0  0.4507576779215496  0.44903817928705386  0.10632672459245748  1.0000
  C   C29       1.0  0.7419493202819212  0.17892600667810526  0.09612223114317552  1.0000
  C   C30       1.0  0.7580506798062948  0.678926006819239  0.4038777687061294  1.0000
  C   C31       1.0  0.2580506792052608  0.8210739932103485  0.9038777689438455  1.0000
  C   C32       1.0  0.24194931968088715  0.3210739930692146  0.5961222313808916  1.0000
  C   C33       1.0  0.7953537800529301  0.16123849870635706  0.23594959000507468  1.0000
  C   C34       1.0  0.7046462200352858  0.6612384988474908  0.2640504098442302  1.0000
  C   C35       1.0  0.20464622093066978  0.8387615011820966  0.7640504100843735  1.0000
  C   C36       1.0  0.29535377945189617  0.33876150104096286  0.7359495902427907  1.0000
  C   C37       1.0  0.677227666799501  0.04540540802548238  0.41839707378543856  1.0000
  C   C38       1.0  0.8227723332887149  0.5454054081666161  0.08160292606386642  1.0000
  C   C39       1.0  0.32277233268768096  0.9545945918629712  0.5816029263015825  1.0000
  C   C40       1.0  0.17722766769488496  0.45459459211565134  0.9183970740255817  1.0000
  C   C41       1.0  0.688830322609394  0.3028109667304227  0.43430772796850603  1.0000
  C   C42       1.0  0.8111696779217283  0.8028109668715564  0.06569227287718397  1.0000
  C   C43       1.0  0.311169678374206  0.697189033158031  0.5656922721209422  1.0000
  C   C44       1.0  0.1888303215654535  0.19718903301689722  0.9343077272098369  1.0000
  C   C45       1.0  0.6812455783677469  0.35622501045616134  0.40561818386152326  1.0000
  C   C46       1.0  0.8187544217204691  0.8562250105972952  0.09438181598778175  1.0000
  C   C47       1.0  0.318754422615853  0.6437749894322923  0.594381816227925  1.0000
  C   C48       1.0  0.1812455777667129  0.14377498929115853  0.9056181840992392  1.0000
  C   C49       1.0  0.7128528253572779  0.3924622786558862  0.5096789400552889  1.0000
  C   C50       1.0  0.7871471744002507  0.8924622787970199  0.9903210595782637  1.0000
  C   C51       1.0  0.2871471741299039  0.6075377212325674  0.4903210600317321  1.0000
  C   C52       1.0  0.2128528265833492  0.10753772109143375  0.009678940511184482  1.0000
  C   C53       1.0  0.7556437361185697  0.32087280932996515  0.6641971599695505  1.0000
  C   C54       1.0  0.7443562640818654  0.8208728090772851  0.835802840660387  1.0000
  C   C55       1.0  0.24435626336861224  0.6791271905584885  0.33580284011747047  1.0000
  C   C56       1.0  0.25564373690173453  0.1791271908111686  0.1641971594290611  1.0000
  C   C57       1.0  0.7514216409955544  0.37460389328290217  0.6406986202508478  1.0000
  C   C58       1.0  0.7485783592048806  0.874603893030222  0.85930138037909  1.0000
  C   C59       1.0  0.24857835998804545  0.6253961066055514  0.35930137983860044  1.0000
  C   C60       1.0  0.25142164028230135  0.12539610685823155  0.14069861970793116  1.0000
  N   N1        1.0  0.7567538225089158  0.028259278698827682  0.5476216595696931  1.0000
  N   N2        1.0  0.7432461772486129  0.5282592788399615  0.9523783400638595  1.0000
  N   N3        1.0  0.2432461765353598  0.971740721189626  0.4523783395209429  1.0000
  N   N4        1.0  0.256753822238569  0.4717407210484922  0.047621660023161545  1.0000
  N   N5        1.0  0.7252678141167872  0.28695923497833337  0.5614294649375188  1.0000
  N   N6        1.0  0.7747321856407415  0.7869592351194671  0.9385705346960337  1.0000
  N   N7        1.0  0.2747321868668127  0.7130407649101203  0.43857053515192934  1.0000
  N   N8        1.0  0.22526781384644046  0.21304076476898656  0.06142946539098727  1.0000
  O   O1        1.0  0.0628987214531964  0.04224182070203225  0.7188399581566026  1.0000
  O   O2        1.0  0.4371012789293696  0.5422418204493521  0.7811600421705617  1.0000
  O   O3        1.0  0.9371012780339855  0.9577581795802351  0.2811600419304184  1.0000
  O   O4        1.0  0.5628987220542303  0.45775817943910146  0.21883995791888652  1.0000
  O   O5        1.0  0.8288973547065652  0.19262356253795535  0.3319422856563848  1.0000
  O   O6        1.0  0.6711026438852328  0.6926235622852753  0.16805771419049298  1.0000
  O   O7        1.0  0.17110264433771027  0.8073764377443121  0.6680577134342511  1.0000
  O   O8        1.0  0.32889735560194927  0.3073764376031784  0.8319422858965281  1.0000
  O   O9        1.0  0.5029248177369391  0.03390271808545342  0.3440638343560051  1.0000
  O   O10       1.0  0.9970751827941834  0.5339027182265872  0.1559361664896849  1.0000
  O   O11       1.0  0.497075181750243  0.9660972818030001  0.655936165731016  1.0000
  O   O12       1.0  0.0029248166929985503  0.4660972820556803  0.844063833597336  1.0000
  Br  Br1       1.0  0.7189005593127774  0.16749146071001533  0.644733865946677  1.0000
  Br  Br2       1.0  0.7810994404447514  0.6674914608511491  0.8552661336868757  1.0000
  Br  Br3       1.0  0.28109943973149826  0.8325085391784383  0.355266133143959  1.0000
  Br  Br4       1.0  0.21890055904243053  0.33250853903730454  0.1447338664001454  1.0000
  Br  Br5       1.0  0.6421231401955061  0.04253072726218239  0.8726879138064644  1.0000
  Br  Br6       1.0  0.8578768595620224  0.5425307274033161  0.627312085827088  1.0000
  Br  Br7       1.0  0.35787686078809366  0.9574692726262712  0.1273120862829836  1.0000
  Br  Br8       1.0  0.14212313992515946  0.45746927287895134  0.372687914259933  1.0000
  Br  Br9       1.0  0.731238954544376  0.25189526659680384  0.06653068103563818  1.0000
  Br  Br10      1.0  0.7687610455438397  0.7518952667379376  0.4334693188136668  1.0000
  Br  Br11      1.0  0.26876104494280595  0.7481047332916497  0.933469319051383  1.0000
  Br  Br12      1.0  0.23123895543976009  0.24810473315051607  0.5665306812757813  1.0000
  Br  Br13      1.0  0.2555389680600349  0.11759836516512331  0.5347643942465644  1.0000
  Br  Br14      1.0  0.244461032322531  0.6175983653062571  0.9652356060805997  1.0000
  Br  Br15      1.0  0.744461031427147  0.8824016347233303  0.4652356058404566  1.0000
  Br  Br16      1.0  0.7555389686610688  0.38240163497601043  0.03476439400884837  1.0000
