data_image0
_chemical_formula_structural       H36C28N12O12Cl8
_chemical_formula_sum              "H36 C28 N12 O12 Cl8"
_cell_length_a       5.061959795279576
_cell_length_b       14.18927157005859
_cell_length_c       14.851642002768898
_cell_angle_alpha    90.0
_cell_angle_beta     100.93056248630366
_cell_angle_gamma    90.0

_space_group_name_H-M_alt    "P 1"
_space_group_IT_number       1

loop_
  _space_group_symop_operation_xyz
  'x, y, z'

loop_
  _atom_site_type_symbol
  _atom_site_label
  _atom_site_symmetry_multiplicity
  _atom_site_fract_x
  _atom_site_fract_y
  _atom_site_fract_z
  _atom_site_occupancy
  H   H1        1.0  0.261063817828165  0.4755522640245117  0.3108664416868665  1.0000
  H   H2        1.0  0.7389361828440434  0.975552264374826  0.18913355827307773  1.0000
  H   H3        1.0  0.7389361815544283  0.5244477359713592  0.689133558431159  1.0000
  H   H4        1.0  0.26106381850541327  0.02444773562104482  0.8108664418302087  1.0000
  H   H5        1.0  0.20762670603992575  0.9557358630457168  0.3036177742040055  1.0000
  H   H6        1.0  0.7923732946322827  0.4557358626954025  0.19638222575593875  1.0000
  H   H7        1.0  0.7923732953095308  0.04426413695015399  0.6963822258992809  1.0000
  H   H8        1.0  0.20762670671717404  0.5442641373004683  0.8036177743473477  1.0000
  H   H9        1.0  0.5298952770732568  0.13497761182056872  0.15307278183388395  1.0000
  H   H10       1.0  0.4701047216320884  0.6349776114661252  0.3469272181407994  1.0000
  H   H11       1.0  0.4701047223093366  0.8650223881753021  0.8469272182841415  1.0000
  H   H12       1.0  0.529895277750505  0.3650223885297456  0.6530727819772262  1.0000
  H   H13       1.0  0.16570616481971565  0.25520580757938427  0.3141411759337766  1.0000
  H   H14       1.0  0.8342938358524928  0.7552058079296986  0.1858588240261676  1.0000
  H   H15       1.0  0.8342938345628776  0.7447941924164866  0.6858588241842488  1.0000
  H   H16       1.0  0.16570616549696385  0.24479419206617226  0.8141411760771188  1.0000
  H   H17       1.0  0.4739529475042256  0.10023377119662298  0.3766409622573529  1.0000
  H   H18       1.0  0.5260470531679827  0.6002337708421795  0.12335903770259135  1.0000
  H   H19       1.0  0.5260470518783679  0.8997662295040056  0.6233590378606726  1.0000
  H   H20       1.0  0.47395294818147393  0.39976622915369137  0.8766409624006952  1.0000
  H   H21       1.0  0.20258673592256815  0.30133859295656185  0.16827877042911635  1.0000
  H   H22       1.0  0.7974132627827771  0.8013385933068761  0.33172122954556693  1.0000
  H   H23       1.0  0.7974132634600253  0.698661407039309  0.8317212296889093  1.0000
  H   H24       1.0  0.202586736175927  0.1986614066889947  0.6682787698868492  1.0000
  H   H25       1.0  0.2791528229965105  0.24748389955478875  0.06791894531189893  1.0000
  H   H26       1.0  0.7208471776756978  0.7474838992003452  0.4320810546480453  1.0000
  H   H27       1.0  0.7208471779290568  0.7525161004410821  0.9320810541057782  1.0000
  H   H28       1.0  0.27915282170689554  0.25251610079552556  0.5679189454699802  1.0000
  H   H29       1.0  0.9041918099506151  0.41412262644964914  0.5126732934167699  1.0000
  H   H30       1.0  0.09580818968533705  0.9141226260952057  0.9873267061589885  1.0000
  H   H31       1.0  0.09580818943197819  0.5858773735462217  0.4873267067012556  1.0000
  H   H32       1.0  0.9041918112402302  0.08587737390066517  0.01267329325868861  1.0000
  H   H33       1.0  0.978422148991528  0.38404249810108465  0.40450972596836093  1.0000
  H   H34       1.0  0.021577851680680417  0.8840424984513989  0.09549027399158332  1.0000
  H   H35       1.0  0.021577850391065436  0.6159575018947862  0.5954902741496646  1.0000
  H   H36       1.0  0.9784221496687762  0.11595750154447187  0.904509726111703  1.0000
  C   C1        1.0  0.8962978725459475  0.1423632953972463  0.24041967496206798  1.0000
  C   C2        1.0  0.10370212812626078  0.6423632957475607  0.2595803249978762  1.0000
  C   C3        1.0  0.10370212641275652  0.8576367045986245  0.7595803244703483  1.0000
  C   C4        1.0  0.8962978732231959  0.3576367042483102  0.7404196751054102  1.0000
  C   C5        1.0  0.12256787422222773  0.18189447973116374  0.2980936962896158  1.0000
  C   C6        1.0  0.8774321244831176  0.681894480081478  0.2019063036850675  1.0000
  C   C7        1.0  0.8774321247364764  0.8181055202647071  0.7019063031428004  1.0000
  C   C8        1.0  0.12256787489947608  0.31810551991439273  0.7980936964329581  1.0000
  C   C9        1.0  0.28040369510254204  0.1044728267184669  0.33097476444548857  1.0000
  C   C10       1.0  0.7195963036028031  0.6044728270687812  0.16902523552919477  1.0000
  C   C11       1.0  0.7195963042800515  0.8955271732774039  0.669025235672537  1.0000
  C   C12       1.0  0.28040369577979024  0.3955271729270896  0.8309747645888307  1.0000
  C   C13       1.0  0.6245701484633407  0.27648683870977603  0.1756073688785335  1.0000
  C   C14       1.0  0.3754298522088677  0.7764868383553326  0.3243926310814107  1.0000
  C   C15       1.0  0.3754298509192527  0.7235131612860948  0.8243926312394919  1.0000
  C   C16       1.0  0.6245701491405888  0.22351316164053828  0.6756073690218757  1.0000
  C   C17       1.0  0.3465164530535489  0.2998492247465267  0.12151109696416804  1.0000
  C   C18       1.0  0.6534835460756855  0.7998492243920833  0.3784889036961244  1.0000
  C   C19       1.0  0.6534835463290446  0.7001507752493442  0.8784889031538574  1.0000
  C   C20       1.0  0.34651645330690783  0.2001507756037876  0.621511096421901  1.0000
  C   C21       1.0  0.8167845404823553  0.38725372496181715  0.44441641201241744  1.0000
  C   C22       1.0  0.18321546018985302  0.8872537246073736  0.05558358794752675  1.0000
  C   C23       1.0  0.18321545890023808  0.6127462750340538  0.555583588105608  1.0000
  C   C24       1.0  0.8167845411596036  0.11274627538849721  0.9444164121557598  1.0000
  C   C25       1.0  0.6065283673771471  0.4556761090994682  0.3968396735030982  1.0000
  C   C26       1.0  0.39347163132819807  0.9556761087450247  0.10316032647158517  1.0000
  C   C27       1.0  0.3934716320054464  0.5443238908964027  0.6031603266149275  1.0000
  C   C28       1.0  0.6065283680543954  0.044323891250846154  0.8968396736464403  1.0000
  N   N1        1.0  0.15121103393709398  0.026329067574429217  0.2950146450627784  1.0000
  N   N2        1.0  0.8487889647682513  0.5263290672199857  0.20498535491190484  1.0000
  N   N3        1.0  0.84878896502161  0.9736709324214415  0.7049853543696378  1.0000
  N   N4        1.0  0.15121103461434218  0.47367093277588507  0.7950146452061206  1.0000
  N   N5        1.0  0.9156684854445142  0.04756420276176399  0.23937914719493786  1.0000
  N   N6        1.0  0.0843315152276942  0.5475642024073205  0.2606208527650064  1.0000
  N   N7        1.0  0.08433151393807922  0.9524357979388646  0.7606208529230877  1.0000
  N   N8        1.0  0.9156684861217623  0.45243579758855035  0.73937914733828  1.0000
  N   N9        1.0  0.669025997372249  0.18297011916231018  0.18727797047295364  1.0000
  N   N10       1.0  0.3309740013330963  0.6829701195126244  0.31272202950172967  1.0000
  N   N11       1.0  0.3309740020103446  0.8170298808335607  0.8127220296450719  1.0000
  N   N12       1.0  0.6690259980494971  0.3170298804832464  0.6872779706162958  1.0000
  O   O1        1.0  0.7923731190592805  0.3372417658209808  0.20910765315317892  1.0000
  O   O2        1.0  0.2076268816129278  0.8372417654665373  0.2908923468067653  1.0000
  O   O3        1.0  0.207626882290176  0.66275823417489  0.7908923469501075  1.0000
  O   O4        1.0  0.7923731193126395  0.16275823452933347  0.7091076526109119  1.0000
  O   O5        1.0  0.6596264361783784  0.5412750416453046  0.4051473122515343  1.0000
  O   O6        1.0  0.34037356449382994  0.04127504129499029  0.09485268770840989  1.0000
  O   O7        1.0  0.34037356320421497  0.4587249583505662  0.5948526878664911  1.0000
  O   O8        1.0  0.6596264368556268  0.9587249587008805  0.9051473123948767  1.0000
  O   O9        1.0  0.38762373431827074  0.4201866361188675  0.3476805817194157  1.0000
  O   O10       1.0  0.6123762643870745  0.9201866357644239  0.15231941825526754  1.0000
  O   O11       1.0  0.6123762646404333  0.5798133638770033  0.6523194177130005  1.0000
  O   O12       1.0  0.38762373499551905  0.07981336423144686  0.847680581862758  1.0000
  Cl  Cl1       1.0  0.33300047561845736  0.4122258391574253  0.06820877673197115  1.0000
  Cl  Cl2       1.0  0.666999525053751  0.9122258388029818  0.4317912232279731  1.0000
  Cl  Cl3       1.0  0.666999523764136  0.5877741608384456  0.9317912233860544  1.0000
  Cl  Cl4       1.0  0.3330004762957056  0.08777416119288901  0.5682087768753133  1.0000
  Cl  Cl5       1.0  0.7031847402306354  0.27004528746109396  0.4554430282022538  1.0000
  Cl  Cl6       1.0  0.29681525847470985  0.7700452878114082  0.04455697177242949  1.0000
  Cl  Cl7       1.0  0.29681525915195806  0.7299547125347768  0.5445569719157717  1.0000
  Cl  Cl8       1.0  0.7031847409078834  0.22995471218446253  0.9554430283455959  1.0000
