data_image0
_chemical_formula_structural       H56C44N12O8Br4
_chemical_formula_sum              "H56 C44 N12 O8 Br4"
_cell_length_a       9.485179895292053
_cell_length_b       7.558243993669978
_cell_length_c       16.778986594798337
_cell_angle_alpha    90.0
_cell_angle_beta     101.42779491115797
_cell_angle_gamma    90.0

_space_group_name_H-M_alt    "P 1"
_space_group_IT_number       1

loop_
  _space_group_symop_operation_xyz
  'x, y, z'

loop_
  _atom_site_type_symbol
  _atom_site_label
  _atom_site_symmetry_multiplicity
  _atom_site_fract_x
  _atom_site_fract_y
  _atom_site_fract_z
  _atom_site_occupancy
  H   H1        1.0  0.2033052629260549  0.012349349938712175  0.4676802719946803  1.0000
  H   H2        1.0  0.7966947371916878  0.5123493503574617  0.03231972827930783  1.0000
  H   H3        1.0  0.7966947373683856  0.9876506495757281  0.5323197278019756  1.0000
  H   H4        1.0  0.20330526225356185  0.4876506491569787  0.9676802721215148  1.0000
  H   H5        1.0  0.1306741539637326  0.8091384473856447  0.42469659175574376  1.0000
  H   H6        1.0  0.8693258459475934  0.3091384482899538  0.0753034079102188  1.0000
  H   H7        1.0  0.8693258463307081  0.19086155212879577  0.5753034080409121  1.0000
  H   H8        1.0  0.13067415434684707  0.6908615525475453  0.924696591886437  1.0000
  H   H9        1.0  0.8993272307671439  0.9491614554926003  0.3912798990775907  1.0000
  H   H10       1.0  0.10067276935059886  0.4491614550738507  0.1087201011963975  1.0000
  H   H11       1.0  0.10067276973371332  0.05083854402184013  0.6087201013270906  1.0000
  H   H12       1.0  0.8993272298882341  0.5508385444405897  0.8912798985963996  1.0000
  H   H13       1.0  0.9763999170607643  0.1601807802201077  0.4189100060449547  1.0000
  H   H14       1.0  0.023600082850561876  0.6601807806388572  0.08108999362100786  1.0000
  H   H15       1.0  0.023600083233676353  0.8398192192943327  0.5810899937517011  1.0000
  H   H16       1.0  0.9763999174438788  0.33981921887558314  0.918910006175648  1.0000
  H   H17       1.0  0.21972437781773965  0.49884584476998955  0.3621116619656177  1.0000
  H   H18       1.0  0.7802756220935865  0.9988458451887391  0.13788833770034484  1.0000
  H   H19       1.0  0.7802756224767009  0.5011541547444508  0.637888337831038  1.0000
  H   H20       1.0  0.21972437714524667  0.0011541556487599275  0.8621116620924523  1.0000
  H   H21       1.0  0.5464530889603249  0.17596087545120748  0.5179539145799112  1.0000
  H   H22       1.0  0.4535469117172302  0.6759608758699569  0.9820460853474379  1.0000
  H   H23       1.0  0.45354691133411573  0.8240391240632329  0.4820460852167447  1.0000
  H   H24       1.0  0.5464530885772103  0.32403912364448345  0.01795391444921795  1.0000
  H   H25       1.0  0.403872623625822  0.20116444524328342  0.6223283933116857  1.0000
  H   H26       1.0  0.5961273759961254  0.7011644456620328  0.8776716066118047  1.0000
  H   H27       1.0  0.5961273766686185  0.7988355555942156  0.3776716064849701  1.0000
  H   H28       1.0  0.4038726232427076  0.2988355551754661  0.12232839318099242  1.0000
  H   H29       1.0  0.09050304549427139  0.5025670146638902  0.47421188619094934  1.0000
  H   H30       1.0  0.9094969546234712  0.0025670155681993415  0.02578811408303879  1.0000
  H   H31       1.0  0.9094969550065859  0.49743298485055015  0.5257881142137321  1.0000
  H   H32       1.0  0.09050304567096923  0.9974329852692997  0.9742118857136169  1.0000
  H   H33       1.0  0.33738650934716946  0.37761491457411417  0.25675551817997155  1.0000
  H   H34       1.0  0.6626134907705732  0.877614913669805  0.2432444820940166  1.0000
  H   H35       1.0  0.6626134911536877  0.622385086263385  0.7432444822247097  1.0000
  H   H36       1.0  0.33738650952386734  0.12238508584463538  0.7567555177026393  1.0000
  H   H37       1.0  0.5205462011058059  0.4413835426315911  0.2613157982090516  1.0000
  H   H38       1.0  0.47945379901193685  0.941383541727282  0.23868420206493654  1.0000
  H   H39       1.0  0.4794537993950513  0.558616458205908  0.7386842021956297  1.0000
  H   H40       1.0  0.5205462002268962  0.058616457787158426  0.7613157977278605  1.0000
  H   H41       1.0  0.40458707109836006  0.5748426954248589  0.30810744511776655  1.0000
  H   H42       1.0  0.595412928812966  0.07484269500610935  0.191892554548196  1.0000
  H   H43       1.0  0.5954129291960805  0.4251573040895815  0.6918925546788892  1.0000
  H   H44       1.0  0.4045870714814745  0.9251573045083311  0.8081074452484598  1.0000
  H   H45       1.0  0.6893311121409433  0.2722755129000215  0.4323451856302326  1.0000
  H   H46       1.0  0.31066888797679937  0.7722755119957123  0.06765481464375554  1.0000
  H   H47       1.0  0.3106688873043063  0.7277244879374775  0.56765481477059  1.0000
  H   H48       1.0  0.6893311125240578  0.22772448751872804  0.9323451857609258  1.0000
  H   H49       1.0  0.6564280715721704  0.24530161655971475  0.32523527037945643  1.0000
  H   H50       1.0  0.34357192833915573  0.7453016156554056  0.17476472928650616  1.0000
  H   H51       1.0  0.3435719287222702  0.7546983842777842  0.6747647294171993  1.0000
  H   H52       1.0  0.6564280708996773  0.25469838385903476  0.8252352705062909  1.0000
  H   H53       1.0  0.5820467968176629  0.09095677919047843  0.3862030028666011  1.0000
  H   H54       1.0  0.4179532030936631  0.590956779609228  0.11379699679936149  1.0000
  H   H55       1.0  0.41795320347677756  0.9090432216470206  0.6137969969300547  1.0000
  H   H56       1.0  0.58204679614517  0.4090432212282711  0.8862030029934356  1.0000
  C   C1        1.0  0.9813496538514969  0.08256578254454913  0.29730797297925116  1.0000
  C   C2        1.0  0.018650346266245867  0.5825657829632986  0.20269202729473698  1.0000
  C   C3        1.0  0.018650346442943652  0.9174342169698912  0.7026920268174046  1.0000
  C   C4        1.0  0.9813496542346113  0.41743421655114177  0.7973079731099444  1.0000
  C   C5        1.0  0.21209207473697753  0.9744817534560264  0.3418957860452519  1.0000
  C   C6        1.0  0.7879079253807653  0.4744817543603355  0.15810421422873622  1.0000
  C   C7        1.0  0.7879079245018556  0.025518246058413973  0.6581042137475451  1.0000
  C   C8        1.0  0.212092075120092  0.5255182464771635  0.8418957861759452  1.0000
  C   C9        1.0  0.13733150312998474  0.9518554158909484  0.4135134823831445  1.0000
  C   C10       1.0  0.8626684969877579  0.45185541679525754  0.08648651789084359  1.0000
  C   C11       1.0  0.8626684971644559  0.04814458362349195  0.5864865174135113  1.0000
  C   C12       1.0  0.13733150351309925  0.5481445840422414  0.9135134825138378  1.0000
  C   C13       1.0  0.9892997030709357  0.03690792467584111  0.38632063487271556  1.0000
  C   C14       1.0  0.010700296840390299  0.536907923771532  0.11367936479324697  1.0000
  C   C15       1.0  0.010700297223504789  0.9630920761616579  0.6136793649239403  1.0000
  C   C16       1.0  0.9892997034540502  0.4630920757429084  0.8863206350034089  1.0000
  C   C17       1.0  0.2659810780857551  0.4294680117125806  0.4181649100978312  1.0000
  C   C18       1.0  0.7340189218255709  0.9294680108082715  0.08183508956813139  1.0000
  C   C19       1.0  0.7340189222086855  0.5705319891249184  0.5818350896988247  1.0000
  C   C20       1.0  0.265981077413262  0.07053198870616892  0.9181649102246656  1.0000
  C   C21       1.0  0.4463667560732983  0.24992613252258566  0.5036531717318636  1.0000
  C   C22       1.0  0.5536332446042568  0.7499261329413351  0.9963468281954855  1.0000
  C   C23       1.0  0.5536332442211424  0.7500738669918547  0.4963468280647923  1.0000
  C   C24       1.0  0.44636675569018375  0.2500738665731052  0.0036531716011703463  1.0000
  C   C25       1.0  0.40017589489846606  0.338821340266965  0.42819482100315787  1.0000
  C   C26       1.0  0.5998241052192765  0.8388213406857145  0.07180517927083026  1.0000
  C   C27       1.0  0.5998241053959744  0.6611786592474754  0.5718051787934979  1.0000
  C   C28       1.0  0.4001758942259731  0.16117866015178453  0.9281948211299924  1.0000
  C   C29       1.0  0.36563883738722774  0.2624270189823415  0.5632282216388192  1.0000
  C   C30       1.0  0.6343611622347198  0.762427019401091  0.936771778284671  1.0000
  C   C31       1.0  0.6343611629072128  0.7375729805320989  0.43677177815783647  1.0000
  C   C32       1.0  0.36563883700411326  0.23757298011334935  0.06322822150812607  1.0000
  C   C33       1.0  0.1924319197779954  0.4318973458297879  0.48137944443664266  1.0000
  C   C34       1.0  0.8075680801333307  0.9318973449254788  0.018620555229319914  1.0000
  C   C35       1.0  0.8075680805164451  0.5681026550077111  0.5186205553600132  1.0000
  C   C36       1.0  0.19243191910550234  0.06810265458896159  0.981379444563477  1.0000
  C   C37       1.0  0.432850375664563  0.4384768860036231  0.29495749480527333  1.0000
  C   C38       1.0  0.5671496242467631  0.9384768864223727  0.20504250486068926  1.0000
  C   C39       1.0  0.5671496235742701  0.5615231135108173  0.7050425049875237  1.0000
  C   C40       1.0  0.43285037604767745  0.0615231144151264  0.7949574949359666  1.0000
  C   C41       1.0  0.6087750288694579  0.2307553753835794  0.3790882619565904  1.0000
  C   C42       1.0  0.3912249712482849  0.730755375802329  0.12091173831739771  1.0000
  C   C43       1.0  0.39122497142498275  0.769244624130861  0.6209117378400654  1.0000
  C   C44       1.0  0.6087750281969648  0.2692446250351701  0.8790882620834249  1.0000
  N   N1        1.0  0.11392841995060796  0.047748217747700036  0.2782164317777267  1.0000
  N   N2        1.0  0.8860715799607182  0.5477482181664496  0.2217835678882359  1.0000
  N   N3        1.0  0.8860715803438327  0.9522517817667404  0.7217835680189292  1.0000
  N   N4        1.0  0.11392842033372248  0.4522517826710495  0.77821643190842  1.0000
  N   N5        1.0  0.23973300809653778  0.35100200949080906  0.5534275647832596  1.0000
  N   N6        1.0  0.7602669915254098  0.8510020099095585  0.9465724351402307  1.0000
  N   N7        1.0  0.7602669924043194  0.6489979900236313  0.44657243562142174  1.0000
  N   N8        1.0  0.23973300771342332  0.14899798960488184  0.05342756465256638  1.0000
  N   N9        1.0  0.4798486183931064  0.33927614035053977  0.3699240253209637  1.0000
  N   N10       1.0  0.5201513817246363  0.8392761407692894  0.13007597495302445  1.0000
  N   N11       1.0  0.5201513821077508  0.6607238591639005  0.6300759750837177  1.0000
  N   N12       1.0  0.47984861877622087  0.16072385874515108  0.8699240254516569  1.0000
  O   O1        1.0  0.3372084038463734  0.9355205992187956  0.3403341570599109  1.0000
  O   O2        1.0  0.6627915960649526  0.435520598800046  0.15966584260605168  1.0000
  O   O3        1.0  0.6627915964480671  0.06447940029564486  0.6596658427367449  1.0000
  O   O4        1.0  0.3372084031738804  0.5644794007143944  0.8403341571867453  1.0000
  O   O5        1.0  0.8761105626069828  0.14144781392283284  0.2500363738994454  1.0000
  O   O6        1.0  0.12388943751075997  0.6414478130185237  0.24996362637454278  1.0000
  O   O7        1.0  0.12388943768745783  0.8585521869146662  0.7499636258972106  1.0000
  O   O8        1.0  0.8761105629900973  0.3585521864959167  0.7500363740301387  1.0000
  Br  Br1       1.0  0.16219841472880925  0.09382793550908557  0.16981603025740233  1.0000
  Br  Br2       1.0  0.8378015853889335  0.5938279346047765  0.3301839700165858  1.0000
  Br  Br3       1.0  0.8378015847164404  0.9061720653284134  0.8301839701434203  1.0000
  Br  Br4       1.0  0.1621984149055071  0.40617206490966395  0.66981602978007  1.0000
