data_image0
_chemical_formula_structural       H52C64N8O12Br4
_chemical_formula_sum              "H52 C64 N8 O12 Br4"
_cell_length_a       31.958356247053665
_cell_length_b       6.080683809878837
_cell_length_c       7.393887802279166
_cell_angle_alpha    90.0
_cell_angle_beta     90.0
_cell_angle_gamma    90.0

_space_group_name_H-M_alt    "P 1"
_space_group_IT_number       1

loop_
  _space_group_symop_operation_xyz
  'x, y, z'

loop_
  _atom_site_type_symbol
  _atom_site_label
  _atom_site_symmetry_multiplicity
  _atom_site_fract_x
  _atom_site_fract_y
  _atom_site_fract_z
  _atom_site_occupancy
  H   H1        1.0  0.5792944892685711  0.31603969883747207  0.827871404555685  1.0000
  H   H2        1.0  0.42070551082362184  0.6839603011824538  0.32787140470980997  1.0000
  H   H3        1.0  0.9207055107132647  0.816039698025159  0.32787140470980997  1.0000
  H   H4        1.0  0.07929448906602098  0.18396030199476676  0.827871404555685  1.0000
  H   H5        1.0  0.5703746431476905  0.166730401004061  0.6234329426231072  1.0000
  H   H6        1.0  0.4296253566315952  0.8332695990158647  0.12343294277723227  1.0000
  H   H7        1.0  0.9296253568341452  0.6667304018362998  0.12343294277723227  1.0000
  H   H8        1.0  0.07037464325804764  0.333269598183626  0.6234329426231072  1.0000
  H   H9        1.0  0.5361555671868978  0.8885699847148707  0.8011086830630755  1.0000
  H   H10       1.0  0.463844432905295  0.11143001530505517  0.30110868321720047  1.0000
  H   H11       1.0  0.9638444327949378  0.3885699838826318  0.30110868321720047  1.0000
  H   H12       1.0  0.03615556729725504  0.611430016137294  0.8011086830630755  1.0000
  H   H13       1.0  0.5361612624109761  0.06457516987843906  0.9941340451141553  1.0000
  H   H14       1.0  0.4638387376812167  0.9354248301414867  0.49413404391581195  1.0000
  H   H15       1.0  0.9638387375708596  0.564575169066126  0.49413404391581195  1.0000
  H   H16       1.0  0.03616126252133331  0.43542483095379975  0.9941340451141553  1.0000
  H   H17       1.0  0.6718555220429872  0.8539789080240747  0.25574964491848307  1.0000
  H   H18       1.0  0.32814447804920577  0.1460210919958511  0.755749644764358  1.0000
  H   H19       1.0  0.8281444779388486  0.35397890719183583  0.755749644764358  1.0000
  H   H20       1.0  0.17185552215334426  0.6460210928280898  0.25574964491848307  1.0000
  H   H21       1.0  0.8998639653956326  0.3320907669494883  0.11536198719935549  1.0000
  H   H22       1.0  0.10013603469656028  0.6679092330704375  0.6153619870452305  1.0000
  H   H23       1.0  0.6001360345862031  0.8320907677817272  0.6153619870452305  1.0000
  H   H24       1.0  0.3998639651930826  0.1679092322381986  0.11536198719935549  1.0000
  H   H25       1.0  0.7294206557369206  0.3968545784405922  0.9717629631579194  1.0000
  H   H26       1.0  0.2705793443552722  0.6031454215793336  0.47176296331204454  1.0000
  H   H27       1.0  0.770579344244915  0.896854577628279  0.47176296331204454  1.0000
  H   H28       1.0  0.2294206558472778  0.10314542239164666  0.9717629631579194  1.0000
  H   H29       1.0  0.8397647555003467  0.5497199631675316  0.24307901310674238  1.0000
  H   H30       1.0  0.16023524427893895  0.4502800368523942  0.7430790143050857  1.0000
  H   H31       1.0  0.6602352444814891  0.04971996233529271  0.7430790143050857  1.0000
  H   H32       1.0  0.33976475561070385  0.9502800376846331  0.24307901310674238  1.0000
  H   H33       1.0  0.8876223758415369  0.9669990273868826  0.9858611227172068  1.0000
  H   H34       1.0  0.11237762425065594  0.033000972633043135  0.4858611228713319  1.0000
  H   H35       1.0  0.612377624453206  0.4669990281991957  0.4858611228713319  1.0000
  H   H36       1.0  0.3876223756389869  0.5330009718207301  0.9858611227172068  1.0000
  H   H37       1.0  0.8153391441214146  0.8051727623208806  0.985582937538448  1.0000
  H   H38       1.0  0.18466085565787108  0.1948272376990452  0.4855829363401045  1.0000
  H   H39       1.0  0.6846608558604211  0.30517276148864175  0.4855829363401045  1.0000
  H   H40       1.0  0.31533914423177173  0.694827238531284  0.985582937538448  1.0000
  H   H41       1.0  0.6599547147217387  0.5826834515295409  0.9720304367865279  1.0000
  H   H42       1.0  0.34004528537045414  0.4173165484903848  0.47203043694065305  1.0000
  H   H43       1.0  0.840045285260097  0.08268345069730211  0.47203043694065305  1.0000
  H   H44       1.0  0.15995471483209592  0.9173165493226237  0.9720304367865279  1.0000
  H   H45       1.0  0.7683381091373803  0.3954062512005387  0.23675417409774566  1.0000
  H   H46       1.0  0.23166189064190537  0.6045937488193871  0.7367541739436206  1.0000
  H   H47       1.0  0.7316618908444553  0.8954062503882256  0.7367541739436206  1.0000
  H   H48       1.0  0.26833810924773743  0.10459374963170019  0.23675417409774566  1.0000
  H   H49       1.0  0.60408099311365  0.0654406662871571  0.24759425744000219  1.0000
  H   H50       1.0  0.3959190066656356  0.9345593337327687  0.747594257285877  1.0000
  H   H51       1.0  0.8959190068681857  0.5654406671193959  0.747594257285877  1.0000
  H   H52       1.0  0.10408099322400717  0.43455933290052984  0.24759425744000219  1.0000
  C   C1        1.0  0.5555962723094361  0.2326709518593092  0.7459277632397812  1.0000
  C   C2        1.0  0.44440372778275666  0.7673290481606165  0.2459277633939062  1.0000
  C   C3        1.0  0.9444037276723996  0.7326709510469962  0.2459277633939062  1.0000
  C   C4        1.0  0.055596272419793334  0.26732904897292964  0.7459277632397812  1.0000
  C   C5        1.0  0.5234362190183738  0.398823026459638  0.6835585885468882  1.0000
  C   C6        1.0  0.476563781073819  0.6011769735602878  0.18355858870101321  1.0000
  C   C7        1.0  0.9765637809634619  0.8988230272918768  0.18355858870101321  1.0000
  C   C8        1.0  0.023436219128731034  0.10117697272804896  0.6835585885468882  1.0000
  C   C9        1.0  0.48517498272238224  0.11495208464291581  0.8145340720674096  1.0000
  C   C10       1.0  0.5148250173698106  0.88504791537701  0.3145340722215347  1.0000
  C   C11       1.0  0.01482501716726058  0.6149520854751547  0.3145340722215347  1.0000
  C   C12       1.0  0.9851749826120251  0.38504791454477116  0.8145340720674096  1.0000
  C   C13       1.0  0.5306361337518237  0.057452888675519065  0.8477360730396624  1.0000
  C   C14       1.0  0.4693638663403692  0.9425471113444067  0.3477360731937874  1.0000
  C   C15       1.0  0.969363866230012  0.557452887863206  0.3477360731937874  1.0000
  C   C16       1.0  0.03063613354927365  0.44254711215671977  0.8477360730396624  1.0000
  C   C17       1.0  0.787220540866191  0.08922048357762088  0.10986011036705352  1.0000
  C   C18       1.0  0.21277945922600194  0.9107795164423049  0.6098601102129285  1.0000
  C   C19       1.0  0.7127794591156448  0.5892204844098597  0.6098601102129285  1.0000
  C   C20       1.0  0.2872205409765481  0.4107795156100661  0.10986011036705352  1.0000
  C   C21       1.0  0.7061989520215295  0.1097414913954055  0.11591175210094719  1.0000
  C   C22       1.0  0.2938010480706634  0.8902585086245203  0.6159117532992906  1.0000
  C   C23       1.0  0.7938010479603063  0.6097414922276443  0.6159117532992906  1.0000
  C   C24       1.0  0.20619895181897946  0.3902585077922815  0.11591175210094719  1.0000
  C   C25       1.0  0.670237042681904  0.015295791214944503  0.19219296640692332  1.0000
  C   C26       1.0  0.32976295709738174  0.9847042088049812  0.6921929662527982  1.0000
  C   C27       1.0  0.8297629572999318  0.5152957920471833  0.6921929662527982  1.0000
  C   C28       1.0  0.1702370427922611  0.4847042079727424  0.19219296640692332  1.0000
  C   C29       1.0  0.8681358848848122  0.2664616399503735  0.11579330832367889  1.0000
  C   C30       1.0  0.13186411520738073  0.7335383600695524  0.6157933081695539  1.0000
  C   C31       1.0  0.6318641150970234  0.7664616391380604  0.6157933081695539  1.0000
  C   C32       1.0  0.3681358846822621  0.23353836088186536  0.11579330832367889  1.0000
  C   C33       1.0  0.7027407344228008  0.3166681561162063  0.034528741418189124  1.0000
  C   C34       1.0  0.297259265669392  0.6833318439037194  0.534528741264064  1.0000
  C   C35       1.0  0.7972592655590348  0.8166681553038933  0.534528741264064  1.0000
  C   C36       1.0  0.20274073453315802  0.1833318447160325  0.034528741418189124  1.0000
  C   C37       1.0  0.7458906802253837  0.978673408463016  0.11433081115180312  1.0000
  C   C38       1.0  0.2541093198668092  0.021326591556909778  0.6143308123501465  1.0000
  C   C39       1.0  0.754109319756452  0.4786734092753291  0.6143308123501465  1.0000
  C   C40       1.0  0.24589068002283365  0.5213265907445966  0.11433081115180312  1.0000
  C   C41       1.0  0.8346084133303644  0.38702711464401784  0.1854971520635221  1.0000
  C   C42       1.0  0.16539158676182847  0.612972885375908  0.6854971519093971  1.0000
  C   C43       1.0  0.6653915866514714  0.8870271154762567  0.6854971519093971  1.0000
  C   C44       1.0  0.33460841312781436  0.11297288454366912  0.1854971520635221  1.0000
  C   C45       1.0  0.8612682219079268  0.057251342264240626  0.042416323913290394  1.0000
  C   C46       1.0  0.13873177818426596  0.9427486577556852  0.5424163237591653  1.0000
  C   C47       1.0  0.6387317780739088  0.5572513430964795  0.5424163237591653  1.0000
  C   C48       1.0  0.36126822201828407  0.4427486569234463  0.042416323913290394  1.0000
  C   C49       1.0  0.8212281369264607  0.9684837386927613  0.04061318186454436  1.0000
  C   C50       1.0  0.17877186316573215  0.03151626132716455  0.5406131817104193  1.0000
  C   C51       1.0  0.678771863055375  0.46848373950507427  0.5406131817104193  1.0000
  C   C52       1.0  0.32122813703681785  0.5315162605148516  0.04061318186454436  1.0000
  C   C53       1.0  0.6639340170055263  0.42126835239128174  0.03389485703620603  1.0000
  C   C54       1.0  0.3360659830866665  0.5787316476286439  0.5338948568820809  1.0000
  C   C55       1.0  0.8360659829763093  0.9212683532235206  0.5338948568820809  1.0000
  C   C56       1.0  0.16393401680297634  0.07873164679640517  0.03389485703620603  1.0000
  C   C57       1.0  0.7941563418907018  0.3003066821256713  0.1815049424453425  1.0000
  C   C58       1.0  0.20584365820149103  0.6996933178942545  0.6815049422912174  1.0000
  C   C59       1.0  0.7058436580911338  0.8003066829579102  0.6815049422912174  1.0000
  C   C60       1.0  0.294156342001059  0.19969331706201565  0.1815049424453425  1.0000
  C   C61       1.0  0.6327540363364059  0.13101363677317632  0.1875616072470718  1.0000
  C   C62       1.0  0.367245963755787  0.8689863632467494  0.6875616070929468  1.0000
  C   C63       1.0  0.8672459636454298  0.6310136359608632  0.6875616070929468  1.0000
  C   C64       1.0  0.13275403613385584  0.3689863640590625  0.1875616072470718  1.0000
  N   N1        1.0  0.4841170043414348  0.30932215171988664  0.716494786189072  1.0000
  N   N2        1.0  0.515882995750758  0.6906778483000392  0.21649478499072872  1.0000
  N   N3        1.0  0.015882995861115246  0.8093221509075735  0.21649478499072872  1.0000
  N   N4        1.0  0.9841170042310776  0.1906778491123522  0.716494786189072  1.0000
  N   N5        1.0  0.6299766372325899  0.33063243590033997  0.10949834263787923  1.0000
  N   N6        1.0  0.370023362859603  0.6693675641195858  0.6094983438362226  1.0000
  N   N7        1.0  0.8700233627492459  0.8306324367325789  0.6094983438362226  1.0000
  N   N8        1.0  0.1299766370300398  0.16936756328734695  0.10949834263787923  1.0000
  O   O1        1.0  0.45425378538792593  0.010350164877468617  0.8626005885609989  1.0000
  O   O2        1.0  0.5457462147042669  0.9896498351424572  0.36260058871512396  1.0000
  O   O3        1.0  0.04574621450171686  0.5103501657097075  0.36260058871512396  1.0000
  O   O4        1.0  0.9542537852775688  0.4896498343102183  0.8626005885609989  1.0000
  O   O5        1.0  0.5298723688757047  0.5790275502041202  0.6148415761189496  1.0000
  O   O6        1.0  0.470127630903581  0.4209724498158055  0.1148415749206063  1.0000
  O   O7        1.0  0.9701276311061311  0.07902754937188144  0.1148415749206063  1.0000
  O   O8        1.0  0.029872368986061788  0.9209724506480443  0.6148415761189496  1.0000
  O   O9        1.0  0.7433254672536571  0.7752269066090329  0.11579114572662202  1.0000
  O   O10       1.0  0.25667453283853575  0.22477309341089288  0.6157911469249654  1.0000
  O   O11       1.0  0.7566745327281785  0.2752269057767941  0.6157911469249654  1.0000
  O   O12       1.0  0.2433254670511071  0.7247730942431317  0.11579114572662202  1.0000
  Br  Br1       1.0  0.4330941357872885  0.46391619728969413  0.6607676990302721  1.0000
  Br  Br2       1.0  0.5669058643049044  0.5360838027302316  0.1607676991843971  1.0000
  Br  Br3       1.0  0.06690586441526156  0.9639161964773811  0.1607676991843971  1.0000
  Br  Br4       1.0  0.9330941356769313  0.03608380354254467  0.6607676990302721  1.0000
