data_image0
_chemical_formula_structural       H16C20N6O4Br2
_chemical_formula_sum              "H16 C20 N6 O4 Br2"
_cell_length_a       3.982243114195816
_cell_length_b       9.738143322321864
_cell_length_c       13.434844435499873
_cell_angle_alpha    93.79856195278914
_cell_angle_beta     99.11280922667277
_cell_angle_gamma    91.05158698228186

_space_group_name_H-M_alt    "P 1"
_space_group_IT_number       1

loop_
  _space_group_symop_operation_xyz
  'x, y, z'

loop_
  _atom_site_type_symbol
  _atom_site_label
  _atom_site_symmetry_multiplicity
  _atom_site_fract_x
  _atom_site_fract_y
  _atom_site_fract_z
  _atom_site_occupancy
  H   H1        1.0  0.11517726895902482  0.5970734454382539  0.4481495878385537  1.0000
  H   H2        1.0  0.8848227302929372  0.4029265538684086  0.5518504126356154  1.0000
  H   H3        1.0  0.6937860343266856  0.648223805503204  0.4206017726433399  1.0000
  H   H4        1.0  0.3062139670782581  0.3517761947663523  0.5793982270805001  1.0000
  H   H5        1.0  0.8684293359647542  0.8852653978204883  0.47376541119820575  1.0000
  H   H6        1.0  0.1315706658329449  0.1147346025196838  0.5262345892813259  1.0000
  H   H7        1.0  0.28185641254047217  0.8276291851635244  0.5136094252484831  1.0000
  H   H8        1.0  0.7181435867435904  0.17237081517028596  0.48639057522677026  1.0000
  H   H9        1.0  0.6585684153725827  0.6235907528648241  0.03234787232156924  1.0000
  H   H10       1.0  0.3414315834866239  0.3764092463712225  0.9676521273969083  1.0000
  H   H11       1.0  0.7560409421141052  0.5386062542477931  0.8568283309614572  1.0000
  H   H12       1.0  0.2439590592908383  0.4613937460217632  0.14317166876238283  1.0000
  H   H13       1.0  0.2528114207153708  0.9012425918775054  0.746285357832949  1.0000
  H   H14       1.0  0.7471885810502277  0.09875740743551889  0.2537146426454983  1.0000
  H   H15       1.0  0.16956847340781162  0.9681780925280549  0.9236948984875405  1.0000
  H   H16       1.0  0.8304315254834953  0.0318219077351395  0.0763051012320213  1.0000
  C   C1        1.0  0.19442666158068334  0.8858032607477354  0.36122443640202584  1.0000
  C   C2        1.0  0.8055733373106235  0.11419673951545896  0.6387755633175358  1.0000
  C   C3        1.0  0.9867824558239119  0.6652775122794415  0.30017462464520944  1.0000
  C   C4        1.0  0.013217543460150607  0.33472248805436894  0.6998253758300439  1.0000
  C   C5        1.0  0.9539715049807594  0.6753634990863217  0.4108579569149293  1.0000
  C   C6        1.0  0.04602849427120256  0.32463650022034085  0.5891420435592397  1.0000
  C   C7        1.0  0.07175301200349708  0.8225701887604127  0.4496709999716295  1.0000
  C   C8        1.0  0.9282469868557094  0.17742981047563386  0.550328999746848  1.0000
  C   C9        1.0  0.5718879856526448  0.6801225809477833  0.9660556786175699  1.0000
  C   C10       1.0  0.42811201363141776  0.319877419386027  0.03394432185768344  1.0000
  C   C11       1.0  0.6260506016984699  0.6338647708237631  0.8701826045877767  1.0000
  C   C12       1.0  0.373949400099229  0.3661352295164091  0.12981739589175476  1.0000
  C   C13       1.0  0.507357656407247  0.7137247395473977  0.7892396746661574  1.0000
  C   C14       1.0  0.4926423424840601  0.2862752607157968  0.21076032505340445  1.0000
  C   C15       1.0  0.5523983310504401  0.6689620237143635  0.6890929317466636  1.0000
  C   C16       1.0  0.44760167074725904  0.33103797662580864  0.310907068732868  1.0000
  C   C17       1.0  0.3428947640295862  0.8367406118323706  0.8074236582025821  1.0000
  C   C18       1.0  0.6571052373753575  0.16325938843718565  0.19257634152125805  1.0000
  C   C19       1.0  0.29902515327109963  0.8740613997669253  0.9063076843235951  1.0000
  C   C20       1.0  0.7009748481338439  0.12593860050263106  0.09369231540024496  1.0000
  N   N1        1.0  0.13570943433957072  0.788537870843516  0.279231073064638  1.0000
  N   N2        1.0  0.8642905645517363  0.21146212941967849  0.7207689266549239  1.0000
  N   N3        1.0  0.41051934442841964  0.7973515261821992  0.9833417794144668  1.0000
  N   N4        1.0  0.5894806548556428  0.2026484741516111  0.016658221060786477  1.0000
  N   N5        1.0  0.5890701451104641  0.6326655291743153  0.6071705251956965  1.0000
  N   N6        1.0  0.41092985629447953  0.3673344710952409  0.39282947452814365  1.0000
  O   O1        1.0  0.9049876801461462  0.5679459902284026  0.2375868491517183  1.0000
  O   O2        1.0  0.09501231871306041  0.43205400900764396  0.7624131505667593  1.0000
  O   O3        1.0  0.32525427798838535  0.000717673567800826  0.3594579787216279  1.0000
  O   O4        1.0  0.6747457208708213  0.9992823256682458  0.6405420209968499  1.0000
  Br  Br1       1.0  0.2622083143726008  0.8098544043074056  0.14723568772449572  1.0000
  Br  Br2       1.0  0.7377916845187062  0.19014559595578887  0.8527643119950661  1.0000
