data_image0
_chemical_formula_structural       H44C44N8O16Br4
_chemical_formula_sum              "H44 C44 N8 O16 Br4"
_cell_length_a       11.169977429857255
_cell_length_b       5.625103670611836
_cell_length_c       19.343669593155077
_cell_angle_alpha    90.0
_cell_angle_beta     92.31555616227004
_cell_angle_gamma    90.0

_space_group_name_H-M_alt    "P 1"
_space_group_IT_number       1

loop_
  _space_group_symop_operation_xyz
  'x, y, z'

loop_
  _atom_site_type_symbol
  _atom_site_label
  _atom_site_symmetry_multiplicity
  _atom_site_fract_x
  _atom_site_fract_y
  _atom_site_fract_z
  _atom_site_occupancy
  H   H1        1.0  0.4790824774042402  0.30150692668310014  0.35544393036271305  1.0000
  H   H2        1.0  0.5209175226128279  0.8015069257398433  0.14455606971106377  1.0000
  H   H3        1.0  0.5209175220396332  0.6984930732081311  0.6445560696399417  1.0000
  H   H4        1.0  0.4790824777259611  0.198493074151388  0.8554439302871787  1.0000
  H   H5        1.0  0.5808807052717664  0.11349224252262739  0.312172300246465  1.0000
  H   H6        1.0  0.4191192947453017  0.6134922415793705  0.18782769982731182  1.0000
  H   H7        1.0  0.41911929506702256  0.886507757368604  0.6878276997517775  1.0000
  H   H8        1.0  0.5808807046985717  0.38650775831186074  0.8121723001753428  1.0000
  H   H9        1.0  0.5613371390117425  0.8208938057665608  0.39958749787106984  1.0000
  H   H10       1.0  0.43866286100532564  0.32089380670981765  0.10041250220270694  1.0000
  H   H11       1.0  0.4386628604321308  0.17910619412467052  0.6004125021315848  1.0000
  H   H12       1.0  0.5613371393334634  0.6791061931814136  0.8995874977955357  1.0000
  H   H13       1.0  0.4571308954206731  0.0012464463609143368  0.441791788690912  1.0000
  H   H14       1.0  0.5428691045963949  0.5012464471954025  0.05820821138286485  1.0000
  H   H15       1.0  0.5428691049181159  0.9987535535303169  0.5582082113073306  1.0000
  H   H16       1.0  0.4571308948474783  0.49875355269582883  0.9417917886197896  1.0000
  H   H17       1.0  0.20235439865880045  0.27229235045074324  0.41046731098286454  1.0000
  H   H18       1.0  0.7976456013582676  0.7722923512852313  0.08953268909091228  1.0000
  H   H19       1.0  0.7976456016799887  0.727707649440488  0.589532689015378  1.0000
  H   H20       1.0  0.20235439898052138  0.2277076503837449  0.9104673109073302  1.0000
  H   H21       1.0  0.9900260300463863  0.6355599468642579  0.436767331522736  1.0000
  H   H22       1.0  0.009973969970681716  0.13555994780751474  0.06323266855104076  1.0000
  H   H23       1.0  0.009973970292402656  0.36444005302697335  0.5632326684755066  1.0000
  H   H24       1.0  0.9900260303681072  0.8644400538614615  0.9367673314472018  1.0000
  H   H25       1.0  0.057987408120062575  0.3857515002499472  0.31361665697668784  1.0000
  H   H26       1.0  0.9420125918970054  0.8857515010844353  0.18638334309708898  1.0000
  H   H27       1.0  0.9420125913238105  0.6142484996412841  0.6863833430259668  1.0000
  H   H28       1.0  0.057987408441783496  0.114248498806796  0.8136166569011535  1.0000
  H   H29       1.0  0.8523619070805749  0.7823581906573689  0.33872462621282257  1.0000
  H   H30       1.0  0.14763809293649308  0.28235819160062575  0.16127537386095428  1.0000
  H   H31       1.0  0.1476380923632983  0.2176418092338624  0.661275373789832  1.0000
  H   H32       1.0  0.852361907402296  0.7176418082906055  0.8387246261372883  1.0000
  H   H33       1.0  0.35234511589553635  0.592871869619651  0.5409778321961456  1.0000
  H   H34       1.0  0.647654883870058  0.09287187056290781  0.9590221677309748  1.0000
  H   H35       1.0  0.647654883548337  0.40712813027158035  0.459022167806509  1.0000
  H   H36       1.0  0.3523451164687311  0.9071281293283234  0.04097783226726778  1.0000
  H   H37       1.0  0.24557026134873527  0.3750116004120782  0.5662237732291363  1.0000
  H   H38       1.0  0.754429738416859  0.8750116012465663  0.9337762266979841  1.0000
  H   H39       1.0  0.7544297389900537  0.6249883994791531  0.43377622676910627  1.0000
  H   H40       1.0  0.24557026102701432  0.12498839864466492  0.06622377330467057  1.0000
  H   H41       1.0  0.2577858127083891  0.6552249550983138  0.6116671582862221  1.0000
  H   H42       1.0  0.7422141870572052  0.15522495426382568  0.8883328416408983  1.0000
  H   H43       1.0  0.7422141867354843  0.3447750447929175  0.38833284171643256  1.0000
  H   H44       1.0  0.25778581328158384  0.8447750456274056  0.11166715835734427  1.0000
  C   C1        1.0  0.37861056313593205  0.7730087078603204  0.36500751855199276  1.0000
  C   C2        1.0  0.6213894368811359  0.27300870702583224  0.1349924815217841  1.0000
  C   C3        1.0  0.6213894363079412  0.22699129203091092  0.6349924814506619  1.0000
  C   C4        1.0  0.37861056345765304  0.7269912928653991  0.8650075184764583  1.0000
  C   C5        1.0  0.3969638202340918  0.06692598430973493  0.2811548097967311  1.0000
  C   C6        1.0  0.6030361797829763  0.566925983366478  0.21884519027704574  1.0000
  C   C7        1.0  0.6030361801046972  0.9330740155814964  0.7188451902015115  1.0000
  C   C8        1.0  0.39696381966089705  0.4330740165247532  0.7811548097256088  1.0000
  C   C9        1.0  0.493679249686969  0.12094247499015483  0.33607285956869354  1.0000
  C   C10       1.0  0.5063207502862652  0.620942475824643  0.1639271399877146  1.0000
  C   C11       1.0  0.5063207506518199  0.8790575249010765  0.6639271404295489  1.0000
  C   C12       1.0  0.493679249157608  0.3790575240665883  0.8360728600149401  1.0000
  C   C13       1.0  0.48065373718593074  0.9293370657880513  0.39138367323438483  1.0000
  C   C14       1.0  0.5193462627873036  0.4293370649535631  0.10861632632202338  1.0000
  C   C15       1.0  0.5193462622579426  0.07066293410317999  0.6086163267682698  1.0000
  C   C16       1.0  0.48065373755148555  0.5706629349376681  0.8913836736762192  1.0000
  C   C17       1.0  0.10613053745674794  0.9440910516449863  0.43146379806521484  1.0000
  C   C18       1.0  0.8938694625164862  0.4440910525882431  0.06853620149119338  1.0000
  C   C19       1.0  0.8938694619871254  0.055908948246245024  0.5685362019374399  1.0000
  C   C20       1.0  0.10613053782230274  0.5559089473029882  0.9314637985070492  1.0000
  C   C21       1.0  0.19243309395722138  0.8739402076593715  0.4888713859543252  1.0000
  C   C22       1.0  0.8075669060598467  0.37394020860262833  0.011128614119451551  1.0000
  C   C23       1.0  0.8075669054866519  0.12605979223185984  0.5111286140483293  1.0000
  C   C24       1.0  0.19243309427894234  0.6260597912886029  0.9888713858787911  1.0000
  C   C25       1.0  0.12622637126570443  0.1578446766481417  0.3966594705158191  1.0000
  C   C26       1.0  0.8737736287075298  0.6578446774826299  0.10334052904058903  1.0000
  C   C27       1.0  0.8737736290730846  0.8421553232430896  0.6033405294824233  1.0000
  C   C28       1.0  0.1262263716312592  0.34215532240860147  0.8966594709576535  1.0000
  C   C29       1.0  0.007648850157952723  0.80294478723958  0.4109312877811168  1.0000
  C   C30       1.0  0.9923511498591154  0.30294478818283677  0.08906871229266004  1.0000
  C   C31       1.0  0.9923511501808362  0.1970552126516514  0.5890687122171258  1.0000
  C   C32       1.0  0.0076488504796736415  0.6970552117083946  0.9109312877055824  1.0000
  C   C33       1.0  0.04641286483666531  0.22199545699469309  0.34280671068988144  1.0000
  C   C34       1.0  0.9535871351804026  0.7219954578291813  0.15719328938389532  1.0000
  C   C35       1.0  0.953587134607208  0.7780045428965382  0.6571932893127731  1.0000
  C   C36       1.0  0.046412865158386246  0.27800454206205005  0.8428067106143473  1.0000
  C   C37       1.0  0.9315669976495325  0.8817577578015571  0.3569478324949227  1.0000
  C   C38       1.0  0.06843300236753554  0.38175775696706893  0.14305216757885414  1.0000
  C   C39       1.0  0.06843300179434077  0.11824224208967427  0.643052167507732  1.0000
  C   C40       1.0  0.9315669979712534  0.6182422429241624  0.8569478324193883  1.0000
  C   C41       1.0  0.26364875784107317  0.564837634299887  0.5617662359347364  1.0000
  C   C42       1.0  0.7363512419245211  0.06483763524314388  0.9382337639923839  1.0000
  C   C43       1.0  0.7363512416028002  0.43516236559134425  0.43823376406791825  1.0000
  C   C44       1.0  0.26364875841426794  0.9351623646480873  0.061766236005858594  1.0000
  N   N1        1.0  0.3337502494742142  0.8697199405514023  0.30340361097948826  1.0000
  N   N2        1.0  0.6662497505428538  0.3697199397169141  0.19659638909428856  1.0000
  N   N3        1.0  0.666249749969659  0.13028005933982903  0.6965963890231663  1.0000
  N   N4        1.0  0.33375024979593515  0.6302800601743173  0.803403610903954  1.0000
  N   N5        1.0  0.9514242295791834  0.08725707271215732  0.3241571408923098  1.0000
  N   N6        1.0  0.048575770394050886  0.5872570735466455  0.17584285866409843  1.0000
  N   N7        1.0  0.048575770759605646  0.912742927179074  0.6758428591059327  1.0000
  N   N8        1.0  0.9514242299447381  0.4127429263445858  0.8241571413341441  1.0000
  O   O1        1.0  0.3392361961582172  0.5933438235880498  0.39245984966263125  1.0000
  O   O2        1.0  0.6607638038588508  0.09334382453130663  0.10754015041114555  1.0000
  O   O3        1.0  0.6607638041805718  0.4066561763031815  0.6075401503356113  1.0000
  O   O4        1.0  0.33923619558502244  0.9066561753599247  0.892459849591509  1.0000
  O   O5        1.0  0.37490698571200737  0.17177685009579582  0.22646976067318758  1.0000
  O   O6        1.0  0.6250930143050607  0.6717768509302839  0.27353023940058924  1.0000
  O   O7        1.0  0.6250930146267816  0.8282231497954355  0.7735302393250549  1.0000
  O   O8        1.0  0.3749069860337283  0.32822314896094734  0.7264697605976533  1.0000
  O   O9        1.0  0.1723182488202667  0.6536314662446187  0.5127671339887185  1.0000
  O   O10       1.0  0.8276817509453276  0.15363146718787546  0.9872328659384018  1.0000
  O   O11       1.0  0.8276817506236066  0.3463685336466127  0.48723286601393606  1.0000
  O   O12       1.0  0.17231824939346146  0.8463685327033558  0.012767134059840778  1.0000
  O   O13       1.0  0.27326045507933816  0.003604906004833577  0.5110438137156205  1.0000
  O   O14       1.0  0.7267395456250055  0.5036049068393217  0.9889561867244565  1.0000
  O   O15       1.0  0.7267395452594508  0.9963950938863978  0.4889561862826221  1.0000
  O   O16       1.0  0.2732604547137834  0.49639509305190954  0.011043813273786106  1.0000
  Br  Br1       1.0  0.2005412822514828  0.7368064915235947  0.2486138968697648  1.0000
  Br  Br2       1.0  0.7994587177655853  0.23680649068910645  0.251386103204012  1.0000
  Br  Br3       1.0  0.7994587180873061  0.2631935083676367  0.7513861031284778  1.0000
  Br  Br4       1.0  0.20054128257320372  0.7631935092021248  0.7486138967942305  1.0000
