data_image0
_chemical_formula_structural       H48C68N4O8F8Br4I4
_chemical_formula_sum              "H48 C68 N4 O8 F8 Br4 I4"
_cell_length_a       7.039204824069494
_cell_length_b       9.360908049111142
_cell_length_c       25.449574015197012
_cell_angle_alpha    90.0
_cell_angle_beta     91.72785113180902
_cell_angle_gamma    90.0

_space_group_name_H-M_alt    "P 1"
_space_group_IT_number       1

loop_
  _space_group_symop_operation_xyz
  'x, y, z'

loop_
  _atom_site_type_symbol
  _atom_site_label
  _atom_site_symmetry_multiplicity
  _atom_site_fract_x
  _atom_site_fract_y
  _atom_site_fract_z
  _atom_site_occupancy
  H   H1        1.0  0.5206027034578091  0.5930769793777817  0.3308836320377047  1.0000
  H   H2        1.0  0.9793972959847956  0.09307697986444084  0.16911636793609972  1.0000
  H   H3        1.0  0.4793972965332253  0.40692301964890004  0.6691163682946178  1.0000
  H   H4        1.0  0.020602703938561173  0.9069230202305134  0.8308836320031702  1.0000
  H   H5        1.0  0.8236291229557775  0.5773311800144395  0.3836552186028663  1.0000
  H   H6        1.0  0.6763708764868271  0.07733118050109855  0.11634478137093818  1.0000
  H   H7        1.0  0.17637087703525695  0.42266882008051476  0.6163447817294562  1.0000
  H   H8        1.0  0.32362912343652955  0.9226688195938556  0.8836552185683318  1.0000
  H   H9        1.0  0.9205391835857658  0.34911941585734485  0.4250395482241315  1.0000
  H   H10       1.0  0.5794608158568391  0.8491194153706858  0.07496045174967306  1.0000
  H   H11       1.0  0.07946081633759104  0.6508805842376093  0.5749604517151385  1.0000
  H   H12       1.0  0.4205391840665178  0.150880583655996  0.9250395481895968  1.0000
  H   H13       1.0  0.23804771599456823  0.48417959734476473  0.29377274664582037  1.0000
  H   H14       1.0  0.261952284000949  0.9841795968581056  0.20622725352034085  1.0000
  H   H15       1.0  0.7619522839287886  0.5158204027501895  0.7062272532934495  1.0000
  H   H16       1.0  0.7380477159900856  0.015820403236848597  0.7937727468119817  1.0000
  H   H17       1.0  0.13350931520203493  0.4240081324564322  0.21340687692644686  1.0000
  H   H18       1.0  0.36649068472580465  0.9240081319697732  0.2865931228466618  1.0000
  H   H19       1.0  0.8664906847213218  0.575991867638522  0.786593123012823  1.0000
  H   H20       1.0  0.6335093151975522  0.07599186812518108  0.7134068770926081  1.0000
  H   H21       1.0  0.8461844215506312  0.4428076911185548  0.1565725781931276  1.0000
  H   H22       1.0  0.6538155793116226  0.9428076917001681  0.34342742177380586  1.0000
  H   H23       1.0  0.1538155797923746  0.5571923089763994  0.8434274217392713  1.0000
  H   H24       1.0  0.3461844206117342  0.057192308394786104  0.656572578165464  1.0000
  H   H25       1.0  0.5593728990222342  0.14216845022063512  0.2552506661350055  1.0000
  H   H26       1.0  0.9406271004203706  0.6421684497339759  0.24474933383879896  1.0000
  H   H27       1.0  0.44062710090112267  0.8578315498743191  0.7447493338042644  1.0000
  H   H28       1.0  0.05937289950298623  0.3578315503609782  0.755250666100471  1.0000
  H   H29       1.0  0.8502568184130406  0.12258820340714312  0.3124107765258849  1.0000
  H   H30       1.0  0.6497431810295642  0.6225882039887565  0.18758922344791956  1.0000
  H   H31       1.0  0.1497431815103162  0.8774117966878111  0.687589223413385  1.0000
  H   H32       1.0  0.3502568188937927  0.3774117961061978  0.8124107764913504  1.0000
  H   H33       1.0  0.014530210894269542  0.11277541072527053  0.41887001777689054  1.0000
  H   H34       1.0  0.4854697890335701  0.6127754102386114  0.08112998199621817  1.0000
  H   H35       1.0  0.9854697890290872  0.8872245893696837  0.5811299821623794  1.0000
  H   H36       1.0  0.5145302108897868  0.3872245898563428  0.9188700179430518  1.0000
  H   H37       1.0  0.903626137987035  0.9748287497457561  0.45623566752324235  1.0000
  H   H38       1.0  0.5963738614555698  0.4748287502324153  0.04376433245056207  1.0000
  H   H39       1.0  0.0963738619363219  0.025171250349198083  0.5437643324160276  1.0000
  H   H40       1.0  0.40362613846778694  0.5251712498625389  0.956235667488708  1.0000
  H   H41       1.0  0.9030740387873061  0.15610099493913432  0.47946582615479594  1.0000
  H   H42       1.0  0.5969259620749475  0.6561009955207476  0.0205341738121375  1.0000
  H   H43       1.0  0.0969259611360507  0.84389900515582  0.520534173784474  1.0000
  H   H44       1.0  0.4030740392680581  0.3438990045742066  0.9794658261202613  1.0000
  H   H45       1.0  0.2741029093943536  0.15321153594027487  0.3395294276415839  1.0000
  H   H46       1.0  0.22589709060116359  0.6532115365218881  0.16047057252457733  1.0000
  H   H47       1.0  0.7258970905290031  0.846788463086407  0.6604705722976859  1.0000
  H   H48       1.0  0.7741029093898709  0.34678846357306603  0.8395294278077452  1.0000
  C   C1        1.0  0.01943809050377507  0.13751252690941976  0.022859244272906015  1.0000
  C   C2        1.0  0.48056190942406457  0.637512527491033  0.4771407555002027  1.0000
  C   C3        1.0  0.9805619094195818  0.8624874731855345  0.9771407556663639  1.0000
  C   C4        1.0  0.5194380904992923  0.3624874726039211  0.5228592444390673  1.0000
  C   C5        1.0  0.8603193248941357  0.10143960981329855  0.9916356668739071  1.0000
  C   C6        1.0  0.6396806749570608  0.6014396103949119  0.5083643328384715  1.0000
  C   C7        1.0  0.1396806750292212  0.8985603902816557  0.008364333065362736  1.0000
  C   C8        1.0  0.36031932496629604  0.3985603897000423  0.49163566710079853  1.0000
  C   C9        1.0  0.8409889749829182  0.9665243032548645  0.9691379516921853  1.0000
  C   C10       1.0  0.659011024935956  0.4665243026732512  0.530862048413246  1.0000
  C   C11       1.0  0.15901102494043862  0.033475696840089685  0.030862048247084706  1.0000
  C   C12       1.0  0.340988974987401  0.5334756974217031  0.469137951526024  1.0000
  C   C13       1.0  0.44428296852901916  0.3724766317228251  0.34418641111013515  1.0000
  C   C14       1.0  0.05571703146649808  0.8724766323044384  0.15581358905602608  1.0000
  C   C15       1.0  0.5557170313943377  0.6275233683721292  0.6558135888291348  1.0000
  C   C16       1.0  0.9442829685245365  0.12752336779051582  0.8441864112762963  1.0000
  C   C17       1.0  0.5630375697596117  0.49341416513952135  0.34998476258755157  1.0000
  C   C18       1.0  0.9369624296829931  0.9934141657211346  0.1500152373862529  1.0000
  C   C19       1.0  0.43696243016374503  0.5065858349554329  0.6500152373517183  1.0000
  C   C20       1.0  0.0630375702403638  0.006585834373819522  0.8499847625530171  1.0000
  C   C21       1.0  0.7314178892880099  0.484571287977849  0.37917137547683344  1.0000
  C   C22       1.0  0.7685821116419216  0.9845712885594623  0.12082862488315262  1.0000
  C   C23       1.0  0.2685821107030246  0.5154287121171052  0.6208286248554891  1.0000
  C   C24       1.0  0.23141788834911292  0.015428711535491893  0.8791713754491699  1.0000
  C   C25       1.0  0.7861607569704004  0.3550658763618133  0.40289206842153646  1.0000
  C   C26       1.0  0.7138392424722043  0.8550658769434266  0.09710793155226798  1.0000
  C   C27       1.0  0.21383924295295637  0.644934123733141  0.5971079315177336  1.0000
  C   C28       1.0  0.2861607574511525  0.14493412315152757  0.902892068387002  1.0000
  C   C29       1.0  0.6717561297541356  0.23416639694566177  0.3974892914590901  1.0000
  C   C30       1.0  0.8282438697561468  0.7341663964590026  0.10251070890776692  1.0000
  C   C31       1.0  0.3282438702368989  0.7658336031492925  0.6025107088732324  1.0000
  C   C32       1.0  0.17175613023488762  0.26583360363595154  0.8974892914245556  1.0000
  C   C33       1.0  0.49736676280197106  0.24167643332580493  0.36857780629275494  1.0000
  C   C34       1.0  0.002633237193546215  0.7416764339074183  0.13142219387340634  1.0000
  C   C35       1.0  0.5026332371213859  0.7583235667691492  0.631422193646515  1.0000
  C   C36       1.0  0.9973667627298106  0.25832356618753594  0.8685778060658637  1.0000
  C   C37       1.0  0.2739350838922981  0.3802716660952574  0.3117188155245449  1.0000
  C   C38       1.0  0.22606491610321916  0.8802716656085983  0.18828118464161636  1.0000
  C   C39       1.0  0.7260649160987365  0.6197283339996968  0.6882811848077776  1.0000
  C   C40       1.0  0.7739350838201376  0.11972833448635588  0.8117188152976537  1.0000
  C   C41       1.0  0.008127230679504651  0.27756854958603283  0.2687673490200522  1.0000
  C   C42       1.0  0.4918727693160126  0.7775685501676461  0.23123265114610903  1.0000
  C   C43       1.0  0.9918727693115299  0.7224314505089213  0.7312326513122703  1.0000
  C   C44       1.0  0.5081272306073442  0.22243144992730807  0.7687673487931609  1.0000
  C   C45       1.0  0.006454131940152469  0.36550171543719834  0.22395392567368316  1.0000
  C   C46       1.0  0.49354586805536477  0.8655017160188117  0.2760460744924781  1.0000
  C   C47       1.0  0.9935458679832044  0.6344982846577559  0.7760460742655867  1.0000
  C   C48       1.0  0.506454131867992  0.13449828407614256  0.7239539254467917  1.0000
  C   C49       1.0  0.8448476103123496  0.37527206245056144  0.19130724871138294  1.0000
  C   C50       1.0  0.6551523905499042  0.8752720630321748  0.3086927512555505  1.0000
  C   C51       1.0  0.15515238961100722  0.6247279365761204  0.8086927512278871  1.0000
  C   C52       1.0  0.34484760937345266  0.12472793706277943  0.6913072486837195  1.0000
  C   C53       1.0  0.6839543061444234  0.29687419697108114  0.2035881978130562  1.0000
  C   C54       1.0  0.8160456947178302  0.7968741975526945  0.29641180215387725  1.0000
  C   C55       1.0  0.3160456937789334  0.7031258031238731  0.7964118021262138  1.0000
  C   C56       1.0  0.18395430520552655  0.2031258025422598  0.7035881977853926  1.0000
  C   C57       1.0  0.6844867581831056  0.20506189890224066  0.24669359292258122  1.0000
  C   C58       1.0  0.8155132412594992  0.7050618984155816  0.25330640705122326  1.0000
  C   C59       1.0  0.3155132417402513  0.7949381011927136  0.7533064070166888  1.0000
  C   C60       1.0  0.18448675866385758  0.2949381016793726  0.7466935928880467  1.0000
  C   C61       1.0  0.8476540574884689  0.1940451888289276  0.27868079466921786  1.0000
  C   C62       1.0  0.6523459433737848  0.6940451883422685  0.2213192052977156  1.0000
  C   C63       1.0  0.1523459424348879  0.8059548112660266  0.721319205270052  1.0000
  C   C64       1.0  0.34765405796922094  0.30595481175268574  0.7786807946346833  1.0000
  C   C65       1.0  0.895993705359664  0.08713408204853051  0.44447738492470534  1.0000
  C   C66       1.0  0.6040062940829408  0.5871340826301439  0.05552261504909911  1.0000
  C   C67       1.0  0.10400629456369277  0.9128659180464237  0.5555226150145646  1.0000
  C   C68       1.0  0.3959937058404161  0.4128659174648104  0.9444773848901709  1.0000
  N   N1        1.0  0.16576786860960474  0.2689689127155859  0.30366502283779917  1.0000
  N   N2        1.0  0.3342321313182349  0.7689689122289268  0.19633497693530952  1.0000
  N   N3        1.0  0.8342321313137521  0.7310310873793683  0.6963349771014706  1.0000
  N   N4        1.0  0.665767870024771  0.23103108786602747  0.8036650229970895  1.0000
  O   O1        1.0  0.3886786474125172  0.12322356698178742  0.36363567751846954  1.0000
  O   O2        1.0  0.11132135251532238  0.6232235664951283  0.1363643222546392  1.0000
  O   O3        1.0  0.6113213525108396  0.8767764331131668  0.6363643224208005  1.0000
  O   O4        1.0  0.8886786474080345  0.3767764335998259  0.8636356776846308  1.0000
  O   O5        1.0  0.7169842625019689  0.10208480256258247  0.41700442319021147  1.0000
  O   O6        1.0  0.7830157369406361  0.6020848020759234  0.082995576783593  1.0000
  O   O7        1.0  0.283015737421388  0.8979151975323717  0.5829955767490586  1.0000
  O   O8        1.0  0.21698426298272086  0.39791519801903086  0.917004423155677  1.0000
  F   F1        1.0  0.6829252158075747  0.9376009692599634  0.939423651872255  1.0000
  F   F2        1.0  0.8170747841112992  0.4376009697466225  0.5605763482331763  1.0000
  F   F3        1.0  0.31707478411578205  0.06239903083499083  0.06057634806701501  1.0000
  F   F4        1.0  0.18292521581205756  0.5623990303483317  0.4394236517060937  1.0000
  F   F5        1.0  0.7187144201587921  0.1976298699115696  0.9832800741943611  1.0000
  F   F6        1.0  0.7812855797600821  0.6976298694249105  0.51671992591107  1.0000
  F   F7        1.0  0.2812855797645648  0.8023701301833847  0.016719925744908718  1.0000
  F   F8        1.0  0.21871442016327478  0.3023701306700437  0.4832800740282  1.0000
  Br  Br1       1.0  0.4613160446995826  0.3126845691298006  0.15909425627628798  1.0000
  Br  Br2       1.0  0.038683956647905984  0.8126845697114139  0.34090574348994973  1.0000
  Br  Br3       1.0  0.5386839566434232  0.6873154309651536  0.8409057436561109  1.0000
  Br  Br4       1.0  0.9613160446950998  0.18731543038354026  0.6590942564424492  1.0000
  I   I1        1.0  0.040824890670048596  0.33803082493695275  0.05778985351359586  1.0000
  I   I2        1.0  0.4591751093254687  0.838030825518566  0.4422101466525654  1.0000
  I   I3        1.0  0.9591751092533083  0.6619691751580016  0.9422101464256741  1.0000
  I   I4        1.0  0.5408248905978882  0.16196917457638818  0.5577898532867045  1.0000
