data_image0
_chemical_formula_structural       H44C28O4Br12
_chemical_formula_sum              "H44 C28 O4 Br12"
_cell_length_a       8.313303754344014
_cell_length_b       15.600364299102818
_cell_length_c       8.15897454128158
_cell_angle_alpha    90.0
_cell_angle_beta     97.61291102261065
_cell_angle_gamma    90.0

_space_group_name_H-M_alt    "P 1"
_space_group_IT_number       1

loop_
  _space_group_symop_operation_xyz
  'x, y, z'

loop_
  _atom_site_type_symbol
  _atom_site_label
  _atom_site_symmetry_multiplicity
  _atom_site_fract_x
  _atom_site_fract_y
  _atom_site_fract_z
  _atom_site_occupancy
  H   H1        1.0  0.30049332925669703  0.4457849039076575  0.3758006966016881  1.0000
  H   H2        1.0  0.6995066715514797  0.9457849039364127  0.12419930366860327  1.0000
  H   H3        1.0  0.6995066716267762  0.5542150961498529  0.6241993038727672  1.0000
  H   H4        1.0  0.30049332812853935  0.054215096121097685  0.8758006968014642  1.0000
  H   H5        1.0  0.17303136869319247  0.49177519722672197  0.8866495362456741  1.0000
  H   H6        1.0  0.8269686309056167  0.9917751972554771  0.6133504631920217  1.0000
  H   H7        1.0  0.8269686308303201  0.5082248028307884  0.11335046298785764  1.0000
  H   H8        1.0  0.17303136861789595  0.008224802802033228  0.38664953604151014  1.0000
  H   H9        1.0  0.3317908612876603  0.47665430867070496  0.05189081163695174  1.0000
  H   H10       1.0  0.6682091393640099  0.9766543086994601  0.44810918739680394  1.0000
  H   H11       1.0  0.6682091394393065  0.5233456907457948  0.948109187600968  1.0000
  H   H12       1.0  0.3317908613629568  0.023345691358050234  0.5518908118411158  1.0000
  H   H13       1.0  0.45898688053090486  0.6147718986633897  0.9731896510770497  1.0000
  H   H14       1.0  0.5410131190679043  0.11477189863463455  0.5268103483606461  1.0000
  H   H15       1.0  0.5410131189926078  0.38522810139412067  0.026810348156482124  1.0000
  H   H16       1.0  0.45898688045560837  0.8852281014228759  0.47318965087288567  1.0000
  H   H17       1.0  0.42060410678990495  0.5472762492149628  0.7969776049897117  1.0000
  H   H18       1.0  0.5793958929654106  0.04727624918620749  0.7030223956845199  1.0000
  H   H19       1.0  0.579395892890114  0.45272375084254773  0.20302239548035575  1.0000
  H   H20       1.0  0.42060410671460846  0.9527237508713029  0.29697760478554774  1.0000
  H   H21       1.0  0.33615759365516895  0.6991657259329053  0.7341847579910967  1.0000
  H   H22       1.0  0.6638424073036008  0.19916572590415008  0.7658152426875227  1.0000
  H   H23       1.0  0.6638424072283043  0.3008342741246051  0.26581524248335864  1.0000
  H   H24       1.0  0.3361575935798724  0.8008342735123497  0.2341847577869328  1.0000
  H   H25       1.0  0.16924909529751764  0.628210001516671  0.6989642835258912  1.0000
  H   H26       1.0  0.8307509043012915  0.12821000148791575  0.8010357159118044  1.0000
  H   H27       1.0  0.8307509043825014  0.37178999854083944  0.3010357169441762  1.0000
  H   H28       1.0  0.16924909522222115  0.8717899985695946  0.19896428332172728  1.0000
  H   H29       1.0  0.09411063232099129  0.7576565113085055  0.8540307625373967  1.0000
  H   H30       1.0  0.9058893674343242  0.25765651127975037  0.6459692381368348  1.0000
  H   H31       1.0  0.9058893673590277  0.24234348874900483  0.1459692379326708  1.0000
  H   H32       1.0  0.09411063224569478  0.74234348877776  0.35403076233323266  1.0000
  H   H33       1.0  0.2612319901142668  0.7398415792549007  0.006724780720239211  1.0000
  H   H34       1.0  0.7387680094904557  0.2398415792261455  0.4932752195456643  1.0000
  H   H35       1.0  0.7387680095657522  0.2601584208026097  0.9932752197498282  1.0000
  H   H36       1.0  0.2612319900330569  0.7601584208313649  0.5067247796878674  1.0000
  H   H37       1.0  0.005074906190816238  0.6831833972372645  0.10209900523641478  1.0000
  H   H38       1.0  0.9949250932574  0.18318339720850937  0.397900993792953  1.0000
  H   H39       1.0  0.9949250933326964  0.3168166028202458  0.8979009939971171  1.0000
  H   H40       1.0  0.0050749062661127565  0.816816602849001  0.6020990054405788  1.0000
  H   H41       1.0  0.9674972376624262  0.6218667502885127  0.9181175968443263  1.0000
  H   H42       1.0  0.03250276313983697  0.1218667502597575  0.5818824025977574  1.0000
  H   H43       1.0  0.03250276306454047  0.3781332497689977  0.08188240239359339  1.0000
  H   H44       1.0  0.9674972377436362  0.878133249797753  0.418117597876698  1.0000
  C   C1        1.0  0.30609733908005093  0.3896540929079195  0.4567051924879565  1.0000
  C   C2        1.0  0.6939026617281258  0.8896540929366747  0.04329480778233488  1.0000
  C   C3        1.0  0.6939026616469158  0.6103459071495909  0.5432948067499631  1.0000
  C   C4        1.0  0.3060973391553474  0.11034590712083567  0.9567051926921205  1.0000
  C   C5        1.0  0.15745654421677693  0.5733546344500688  0.08828980532530942  1.0000
  C   C6        1.0  0.8425434552314391  0.07335463442131364  0.41171019370405837  1.0000
  C   C7        1.0  0.8425434553067358  0.42664536560744154  0.9117101939082224  1.0000
  C   C8        1.0  0.15745654429207345  0.9266453656361967  0.5882898055294733  1.0000
  C   C9        1.0  0.25913242179795437  0.5254970731979295  0.9793776655121779  1.0000
  C   C10       1.0  0.7408675778008548  0.025497073169174357  0.5206223339255179  1.0000
  C   C11       1.0  0.7408675777255582  0.47450292685958084  0.02062233372135394  1.0000
  C   C12       1.0  0.25913242187916424  0.9745029268883361  0.47937766654454955  1.0000
  C   C13       1.0  0.36204022900563615  0.5855791880786638  0.8854581461923924  1.0000
  C   C14       1.0  0.6379597719531336  0.08557918804990856  0.6145418544862269  1.0000
  C   C15       1.0  0.6379597718778369  0.4144208119788466  0.11454185428206294  1.0000
  C   C16       1.0  0.3620402289303396  0.9144208120076018  0.3854581459882284  1.0000
  C   C17       1.0  0.25841265678722586  0.6563974791658492  0.7961635724159457  1.0000
  C   C18       1.0  0.7415873429680897  0.15639747913709406  0.7038364282582857  1.0000
  C   C19       1.0  0.7415873428927932  0.3436025208916611  0.20383642805412178  1.0000
  C   C20       1.0  0.25841265671192937  0.8436025209204163  0.2961635722117817  1.0000
  C   C21       1.0  0.17096710845851085  0.7072175917478096  0.9171861508629056  1.0000
  C   C22       1.0  0.8290328923437524  0.20721759171905443  0.5828138485791782  1.0000
  C   C23       1.0  0.8290328922684559  0.2927824083097008  0.08281384837501413  1.0000
  C   C24       1.0  0.17096710853972072  0.7927824083384559  0.4171861518952772  1.0000
  C   C25       1.0  0.06429374717961277  0.6485861993993244  0.009619342301888855  1.0000
  C   C26       1.0  0.9357062524251097  0.14858619937056913  0.49038065796401464  1.0000
  C   C27       1.0  0.9357062525004063  0.35141380065818606  0.9903806581681787  1.0000
  C   C28       1.0  0.06429374709840288  0.8514138006869413  0.5096193412695171  1.0000
  O   O1        1.0  0.14905431913482659  0.5509945482807951  0.2327919259188619  1.0000
  O   O2        1.0  0.8509456804698959  0.05099454825203995  0.26720807434704164  1.0000
  O   O3        1.0  0.8509456805451924  0.44900545177671525  0.7672080745512055  1.0000
  O   O4        1.0  0.14905431921012305  0.9490054518054705  0.7327919261230258  1.0000
  Br  Br1       1.0  0.5144329300733742  0.39176529104204866  0.5971931011478703  1.0000
  Br  Br2       1.0  0.4855670696819413  0.8917652910708038  0.9028068995263612  1.0000
  Br  Br3       1.0  0.4855670696066449  0.6082347083744511  0.4028068993221973  1.0000
  Br  Br4       1.0  0.5144329299980777  0.10823470898670658  0.09719310094370619  1.0000
  Br  Br5       1.0  0.12445683966272426  0.40012767011851047  0.5824875248668532  1.0000
  Br  Br6       1.0  0.8755431600925913  0.9001276701472657  0.9175124758073783  1.0000
  Br  Br7       1.0  0.8755431600172947  0.5998723299389999  0.4175124756032143  1.0000
  Br  Br8       1.0  0.12445683958742774  0.09987232991024471  0.08248752466268917  1.0000
  Br  Br9       1.0  0.28750606489435343  0.28797664361327563  0.3161693364408786  1.0000
  Br  Br10      1.0  0.7124939345538627  0.7879766436420308  0.18383066258848918  1.0000
  Br  Br11      1.0  0.7124939346291592  0.7120233564442348  0.6838306627926531  1.0000
  Br  Br12      1.0  0.2875060649696499  0.2120233564154796  0.8161693366450425  1.0000
