data_image0
_chemical_formula_structural       H116C100N20O8F24P4I4
_chemical_formula_sum              "H116 C100 N20 O8 F24 P4 I4"
_cell_length_a       17.081349037987668
_cell_length_b       9.754776787731442
_cell_length_c       16.8635115751318
_cell_angle_alpha    90.0
_cell_angle_beta     90.25775919985186
_cell_angle_gamma    90.0

_space_group_name_H-M_alt    "P 1"
_space_group_IT_number       1

loop_
  _space_group_symop_operation_xyz
  'x, y, z'

loop_
  _atom_site_type_symbol
  _atom_site_label
  _atom_site_symmetry_multiplicity
  _atom_site_fract_x
  _atom_site_fract_y
  _atom_site_fract_z
  _atom_site_occupancy
  H   H1        1.0  0.06251700536165762  0.9808857566104489  0.2621279769550607  1.0000
  H   H2        1.0  0.937482994674085  0.48088575598160016  0.2378720232358144  1.0000
  H   H3        1.0  0.9374829944420359  0.019114243622109752  0.737872022725846  1.0000
  H   H4        1.0  0.06251700513481684  0.5191142442509585  0.7621279770380888  1.0000
  H   H5        1.0  0.3826223332160315  0.7065590899699992  0.2834245184811646  1.0000
  H   H6        1.0  0.6173776668197112  0.2065590893411505  0.21657548170971042  1.0000
  H   H7        1.0  0.617377667178287  0.2934409102625594  0.7165754817901305  1.0000
  H   H8        1.0  0.3826223329891908  0.7934409098662694  0.7834245185641927  1.0000
  H   H9        1.0  0.8827739735864367  0.8422544204530898  0.21515072746338557  1.0000
  H   H10       1.0  0.117226026449306  0.34225442084937996  0.28484927272748944  1.0000
  H   H11       1.0  0.11722602622246524  0.15774557977946874  0.7848492728105174  1.0000
  H   H12       1.0  0.8827739739450126  0.6577455793831786  0.7151507275438058  1.0000
  H   H13       1.0  0.21268479786378974  0.5136351798742912  0.09463532863996557  1.0000
  H   H14       1.0  0.7873152021719529  0.013635179245442497  0.4053646715509094  1.0000
  H   H15       1.0  0.7873152019399037  0.4863648203582674  0.9053646710409411  1.0000
  H   H16       1.0  0.212684797636949  0.9863648199619773  0.5946353287229937  1.0000
  H   H17       1.0  0.10618126793324992  0.7324568911700973  0.24646141642303684  1.0000
  H   H18       1.0  0.8938187321024927  0.23245689054124852  0.2535385837678381  1.0000
  H   H19       1.0  0.893818731875652  0.26754310906246137  0.7535385838508663  1.0000
  H   H20       1.0  0.10618126770640914  0.7675431086661713  0.746461416506065  1.0000
  H   H21       1.0  0.8450138449779064  0.6308539481641106  0.4377656530382157  1.0000
  H   H22       1.0  0.15498615446721128  0.1308539475352618  0.062234346562270684  1.0000
  H   H23       1.0  0.15498615482578712  0.36914605206844814  0.5622343466426909  1.0000
  H   H24       1.0  0.8450138453364822  0.869146051672158  0.9377656531186359  1.0000
  H   H25       1.0  0.4908739675907972  0.234953289026822  0.4047064766555827  1.0000
  H   H26       1.0  0.5091260324397371  0.7349532896556706  0.09529352294229573  1.0000
  H   H27       1.0  0.5091260327983129  0.7650467101805978  0.5952935230227159  1.0000
  H   H28       1.0  0.49087396736395644  0.26504671057688794  0.9047064767386109  1.0000
  H   H29       1.0  0.1600380988219296  0.2256394398248323  0.44140925504344475  1.0000
  H   H30       1.0  0.8399619012138131  0.725639440453681  0.0585907451474303  1.0000
  H   H31       1.0  0.8399619009869722  0.7743605593825875  0.5585907452304584  1.0000
  H   H32       1.0  0.1600380985898804  0.2743605597788776  0.9414092545334762  1.0000
  H   H33       1.0  0.11680723206708583  0.7716051636841637  0.4052269816801441  1.0000
  H   H34       1.0  0.8831927673832403  0.27160516408045376  0.09477301851333889  1.0000
  H   H35       1.0  0.883192767741816  0.22839483654839493  0.5947730185937591  1.0000
  H   H36       1.0  0.11680723242045327  0.7283948361521049  0.9052269811675676  1.0000
  H   H37       1.0  0.9789411626480761  0.7041913556278819  0.47942414044576775  1.0000
  H   H38       1.0  0.021058837387666778  0.20419135602417202  0.020575859745107308  1.0000
  H   H39       1.0  0.021058837160825995  0.29580864460467665  0.5205758598281355  1.0000
  H   H40       1.0  0.9789411624212352  0.7958086442083866  0.9794241405287959  1.0000
  H   H41       1.0  0.2671996085045751  0.7512072341026018  0.2009221239862428  1.0000
  H   H42       1.0  0.7328003915311675  0.2512072334737531  0.2990778762046323  1.0000
  H   H43       1.0  0.7328003913043268  0.24879276612995677  0.7990778762876604  1.0000
  H   H44       1.0  0.2671996082725259  0.7487927667588056  0.7009221234762743  1.0000
  H   H45       1.0  0.19625161351181375  0.7532676841197954  0.03789960976479496  1.0000
  H   H46       1.0  0.8037483865239289  0.2532676845160854  0.4621003904260801  1.0000
  H   H47       1.0  0.8037483868825048  0.2467323150876245  0.9621003905065002  1.0000
  H   H48       1.0  0.19625161328497295  0.7467323157164732  0.537899609847823  1.0000
  H   H49       1.0  0.987355906561357  0.9497888892396328  0.1910731546998365  1.0000
  H   H50       1.0  0.012644093469177256  0.44978888963592284  0.30892684489804195  1.0000
  H   H51       1.0  0.012644093242336481  0.050211110992925835  0.8089268449810701  1.0000
  H   H52       1.0  0.9873559063345163  0.5502111105966357  0.6910731547828647  1.0000
  H   H53       1.0  0.4355014705115576  0.5799878842041383  0.2301061005775383  1.0000
  H   H54       1.0  0.5644985295241851  0.07998788460042837  0.2698938996133367  1.0000
  H   H55       1.0  0.5644985292973445  0.4200121160284203  0.7698938996963649  1.0000
  H   H56       1.0  0.43550147086492497  0.9200121156321303  0.7301061000649619  1.0000
  H   H57       1.0  0.26393390912033926  0.5364972560501895  0.27785558742736904  1.0000
  H   H58       1.0  0.736066090910195  0.036497256446479505  0.2221444121705094  1.0000
  H   H59       1.0  0.7360660912687709  0.4635027441823692  0.7221444122509295  1.0000
  H   H60       1.0  0.2639339088934985  0.9635027437860793  0.7778555875103972  1.0000
  H   H61       1.0  0.16149301847919162  0.5647763152232238  0.1795913027698543  1.0000
  H   H62       1.0  0.8385069815565511  0.06477631561951391  0.32040869742102074  1.0000
  H   H63       1.0  0.8385069813245019  0.43522368398419603  0.8204086969110522  1.0000
  H   H64       1.0  0.16149301825235085  0.9352236846130447  0.6795913028528824  1.0000
  H   H65       1.0  0.3163562924506584  0.448142757658798  0.20388822006899598  1.0000
  H   H66       1.0  0.6836437075798759  0.9481427572625079  0.29611177952888246  1.0000
  H   H67       1.0  0.683643707353035  0.5518572425737606  0.7961117796119106  1.0000
  H   H68       1.0  0.31635629222381767  0.05185724297005069  0.7038882201520241  1.0000
  H   H69       1.0  0.45838934046217505  0.3691910812894706  0.2815865890064329  1.0000
  H   H70       1.0  0.5416106595683592  0.8691910808931804  0.21841341059144553  1.0000
  H   H71       1.0  0.541610659926935  0.630808918943088  0.7184134106718657  1.0000
  H   H72       1.0  0.4583893402353343  0.13080891831423933  0.7815865890894611  1.0000
  H   H73       1.0  0.03138926135745005  0.7089743241176047  0.17469810105502995  1.0000
  H   H74       1.0  0.9686107386782926  0.20897432451389492  0.32530189913584506  1.0000
  H   H75       1.0  0.9686107390316602  0.2910256761149538  0.8253018986232686  1.0000
  H   H76       1.0  0.031389261130609275  0.7910256757186637  0.6746981011380582  1.0000
  H   H77       1.0  0.27374142665862405  0.6944268800204241  0.3969552897726621  1.0000
  H   H78       1.0  0.7262585733719102  0.19442687939157535  0.10304470982521635  1.0000
  H   H79       1.0  0.7262585731450694  0.30557312021213456  0.6030447099082445  1.0000
  H   H80       1.0  0.2737414270171999  0.8055731208409833  0.8969552898530823  1.0000
  H   H81       1.0  0.3927984074247623  0.06882984763366835  0.4914765265911567  1.0000
  H   H82       1.0  0.607201592605772  0.5688298472373783  0.0085234730067218  1.0000
  H   H83       1.0  0.6072015923789311  0.9311701525988904  0.50852347308975  1.0000
  H   H84       1.0  0.3927984071979215  0.43117015299518036  0.9914765266741848  1.0000
  H   H85       1.0  0.3679768123319149  0.54354987975415  0.5391860802891107  1.0000
  H   H86       1.0  0.6320231878303544  0.04354988015044016  0.9608139194722161  1.0000
  H   H87       1.0  0.6320231880624037  0.45645012047840855  0.46081391998218446  1.0000
  H   H88       1.0  0.36797681197333915  0.9564501200821185  0.039186080208690556  1.0000
  H   H89       1.0  0.096050751370393  0.9031644538581882  0.09321971532795106  1.0000
  H   H90       1.0  0.9039492486601413  0.40316445425447833  0.4067802842699274  1.0000
  H   H91       1.0  0.9039492484333005  0.09683554637437039  0.9067802843529554  1.0000
  H   H92       1.0  0.09605075172896883  0.5968355459780803  0.5932197154083713  1.0000
  H   H93       1.0  0.29687347801895453  0.269822065360873  0.48902147824555514  1.0000
  H   H94       1.0  0.7031265220167882  0.7698220649645829  0.010978521945319895  1.0000
  H   H95       1.0  0.7031265223701556  0.7301779348716857  0.5109785214327435  1.0000
  H   H96       1.0  0.29687347779211376  0.23017793424283695  0.9890214783285833  1.0000
  H   H97       1.0  0.10769366538501428  0.6653257712839301  0.05421547515787301  1.0000
  H   H98       1.0  0.8923063346507285  0.1653257706550814  0.44578452503300203  1.0000
  H   H99       1.0  0.8923063350040958  0.3346742289486285  0.9457845245204256  1.0000
  H   H100      1.0  0.1076936651581735  0.8346742295774772  0.5542154752409011  1.0000
  H   H101      1.0  0.7937484513840475  0.7061554395241015  0.30378771799275783  1.0000
  H   H102      1.0  0.20625154865169523  0.20615543992039162  0.19621228219811718  1.0000
  H   H103      1.0  0.20625154901027107  0.2938445607084571  0.6962122822785373  1.0000
  H   H104      1.0  0.7937484511572066  0.793844560312167  0.803787718075786  1.0000
  H   H105      1.0  0.17628418858408376  0.8926646318500805  0.15927252167116865  1.0000
  H   H106      1.0  0.8237158114516588  0.3926646322463707  0.3407274785197064  1.0000
  H   H107      1.0  0.8237158112248181  0.10733536838247801  0.8407274786027344  1.0000
  H   H108      1.0  0.17628418835724302  0.6073353679861879  0.6592725217541968  1.0000
  H   H109      1.0  0.32046476777571214  0.6735201074270731  0.12428638283963879  1.0000
  H   H110      1.0  0.6795352322548222  0.17352010782336316  0.37571361675823967  1.0000
  H   H111      1.0  0.679535232613398  0.32647989280548556  0.8757136168386598  1.0000
  H   H112      1.0  0.3204647675488714  0.8264798924091955  0.6242863829226669  1.0000
  H   H113      1.0  0.44663940431754606  0.3262137780540681  0.5360506897596912  1.0000
  H   H114      1.0  0.5533605958447232  0.8262137786829169  0.9639493100016355  1.0000
  H   H115      1.0  0.5533605960715641  0.6737862211533517  0.4639493099186074  1.0000
  H   H116      1.0  0.4466394039589702  0.17378622154964182  0.036050689679271004  1.0000
  C   C1        1.0  0.18161729124252796  0.009922350055383422  0.42395139859697284  1.0000
  C   C2        1.0  0.8183827087880062  0.5099223496590933  0.07604860100090559  1.0000
  C   C3        1.0  0.8183827085611656  0.9900776501771752  0.5760486010839336  1.0000
  C   C4        1.0  0.1816172910156872  0.4900776495483265  0.923951398680001  1.0000
  C   C5        1.0  0.36179167223154435  0.8117608411049584  0.4475168649052644  1.0000
  C   C6        1.0  0.6382083278041984  0.31176084150124844  0.052483135285610605  1.0000
  C   C7        1.0  0.6382083275721492  0.18823915810246145  0.5524831347756421  1.0000
  C   C8        1.0  0.3617916725901202  0.6882391587313101  0.9475168649856845  1.0000
  C   C9        1.0  0.37380369202129055  0.5719840752294219  0.4138945318905399  1.0000
  C   C10       1.0  0.6261963080144521  0.07198407562571199  0.08610546830033515  1.0000
  C   C11       1.0  0.6261963083678196  0.4280159239779979  0.5861054677877587  1.0000
  C   C12       1.0  0.3738036917944498  0.9280159246068467  0.913894531973568  1.0000
  C   C13       1.0  0.30558549113713646  0.9295857657557758  0.4474742558334178  1.0000
  C   C14       1.0  0.6944145088933978  0.42958576512692714  0.052525743764460606  1.0000
  C   C15       1.0  0.6944145086665571  0.07041423447678281  0.5525257438474888  1.0000
  C   C16       1.0  0.30558549149571224  0.5704142340804927  0.9474742559138379  1.0000
  C   C17       1.0  0.4403232645417376  0.4021527806698596  0.3402047822100792  1.0000
  C   C18       1.0  0.5596767354940052  0.9021527812987082  0.15979521798079577  1.0000
  C   C19       1.0  0.5596767352671643  0.5978472185375603  0.6597952180638239  1.0000
  C   C20       1.0  0.440323264895105  0.09784721893385036  0.8402047816975028  1.0000
  C   C21       1.0  0.001818741819749425  0.8096530081480977  0.3704681202332028  1.0000
  C   C22       1.0  0.9981812582107848  0.30965300854438776  0.12953187936467567  1.0000
  C   C23       1.0  0.9981812579839442  0.19034699105932212  0.6295318794477038  1.0000
  C   C24       1.0  0.0018187421783252581  0.6903469916881708  0.8704681203136229  1.0000
  C   C25       1.0  0.4574507592595481  0.3295317678660653  0.40849660925879855  1.0000
  C   C26       1.0  0.5425492407761945  0.829531768494914  0.09150339093207645  1.0000
  C   C27       1.0  0.5425492405493539  0.6704682313413545  0.5915033910151046  1.0000
  C   C28       1.0  0.45745075902749893  0.1704682317376446  0.9084966087488301  1.0000
  C   C29       1.0  0.20294487896762997  0.1432359633033632  0.4453885270953239  1.0000
  C   C30       1.0  0.7970551210681127  0.6432359639322119  0.05461147309555111  1.0000
  C   C31       1.0  0.7970551214214803  0.8567640359040566  0.5546114725829746  1.0000
  C   C32       1.0  0.2029448787407892  0.3567640363003467  0.945388527178352  1.0000
  C   C33       1.0  0.09802879775943484  0.9845067692454509  0.4013370342928323  1.0000
  C   C34       1.0  0.9019712022763079  0.484506769641741  0.0986629658980427  1.0000
  C   C35       1.0  0.9019712020494671  0.015493230987107733  0.5986629659810708  1.0000
  C   C36       1.0  0.09802879753259405  0.5154932305908176  0.9013370343758604  1.0000
  C   C37       1.0  0.38982200446848553  0.5020302172530678  0.4836689127879967  1.0000
  C   C38       1.0  0.6101779955620488  0.002030216624219206  0.016331086809881844  1.0000
  C   C39       1.0  0.610177995335208  0.4979697829794907  0.51633108689291  1.0000
  C   C40       1.0  0.38982200424164476  0.9979697825832007  0.9836689128710246  1.0000
  C   C41       1.0  0.4327278362856813  0.3805568431528729  0.48136420940134583  1.0000
  C   C42       1.0  0.5672721637500613  0.8805568427565827  0.018635790789529157  1.0000
  C   C43       1.0  0.5672721635180121  0.6194431570796857  0.5186357902795606  1.0000
  C   C44       1.0  0.4327278366442572  0.11944315747597578  0.981364209481766  1.0000
  C   C45       1.0  0.20052469134655235  0.6028947814978862  0.13260295677755526  1.0000
  C   C46       1.0  0.7994753086891904  0.10289478189417625  0.36739704341331975  1.0000
  C   C47       1.0  0.7994753084623495  0.39710521873467247  0.8673970434963479  1.0000
  C   C48       1.0  0.2005246917051282  0.8971052183383824  0.6326029568579754  1.0000
  C   C49       1.0  0.9002521862621309  0.8077305489870039  0.2742866805082706  1.0000
  C   C50       1.0  0.09974781377361176  0.3077305483581551  0.22571331968260436  1.0000
  C   C51       1.0  0.099747813546771  0.19226945124555478  0.7257133197656325  1.0000
  C   C52       1.0  0.9002521860352902  0.6922694518744035  0.7742866805912988  1.0000
  C   C53       1.0  0.8807297858172057  0.6924174081046081  0.39777870519433006  1.0000
  C   C54       1.0  0.11927021421853695  0.19241740850089814  0.1022212949965449  1.0000
  C   C55       1.0  0.11927021399169617  0.3075825921279506  0.602221295079573  1.0000
  C   C56       1.0  0.8807297861757817  0.8075825917316605  0.8977787052747502  1.0000
  C   C57       1.0  0.025814763169674595  0.9014702664503549  0.23542481407947513  1.0000
  C   C58       1.0  0.9741852368660682  0.4014702668466449  0.2645751861113999  1.0000
  C   C59       1.0  0.974185236634019  0.09852973378220378  0.7645751856014315  1.0000
  C   C60       1.0  0.02581476352825043  0.5985297333859136  0.7354248141598952  1.0000
  C   C61       1.0  0.3080148688129034  0.5496721807867182  0.23088148249997945  1.0000
  C   C62       1.0  0.6919851312228393  0.049672180157869526  0.26911851769089556  1.0000
  C   C63       1.0  0.6919851315814151  0.4503278194458404  0.7691185177713157  1.0000
  C   C64       1.0  0.3080148685808542  0.9503278190495502  0.730881481990011  1.0000
  C   C65       1.0  0.3848299683722244  0.5973238472589452  0.2684592664655224  1.0000
  C   C66       1.0  0.6151700316635182  0.09732384765523526  0.23154073372535267  1.0000
  C   C67       1.0  0.6151700314366776  0.40267615194847467  0.7315407338083808  1.0000
  C   C68       1.0  0.3848299681453836  0.9026761525773235  0.7684592665485505  1.0000
  C   C69       1.0  0.2767259863598622  0.6527341863945167  0.1706493331377579  1.0000
  C   C70       1.0  0.7232740136706721  0.15273418679080675  0.3293506664601205  1.0000
  C   C71       1.0  0.7232740134438312  0.34726581281290314  0.8293506665431487  1.0000
  C   C72       1.0  0.276725986718438  0.8472658134417519  0.6706493332181781  1.0000
  C   C73       1.0  0.9557053359535864  0.7319532999442909  0.4213713656743729  1.0000
  C   C74       1.0  0.04429466408215635  0.2319533003405811  0.07862863451650214  1.0000
  C   C75       1.0  0.04429466444073218  0.26804669926312885  0.5786286345969224  1.0000
  C   C76       1.0  0.9557053357267455  0.7680466998919775  0.921371365757401  1.0000
  C   C77       1.0  0.8523380885376471  0.732737330185723  0.3236869725309624  1.0000
  C   C78       1.0  0.14766191149809554  0.23273732955687426  0.1763130276599126  1.0000
  C   C79       1.0  0.14766191185667138  0.2672626700468357  0.6763130277403328  1.0000
  C   C80       1.0  0.8523380883108065  0.7672626706756844  0.8236869726139905  1.0000
  C   C81       1.0  0.1579327299349666  0.7130891830091464  0.08460477360403791  1.0000
  C   C82       1.0  0.8420672701007762  0.2130891834054365  0.4153952265868371  1.0000
  C   C83       1.0  0.8420672704593519  0.2869108172234122  0.9153952266672573  1.0000
  C   C84       1.0  0.1579327297081258  0.786910816827122  0.5846047736870661  1.0000
  C   C85       1.0  0.33204416522321867  0.05836013600188112  0.472403209268473  1.0000
  C   C86       1.0  0.667955834812524  0.5583601356055911  0.027596790922401974  1.0000
  C   C87       1.0  0.6679558345856833  0.9416398642306775  0.5275967910054302  1.0000
  C   C88       1.0  0.3320441649963779  0.4416398646269676  0.9724032093515012  1.0000
  C   C89       1.0  0.07272817263552776  0.7845026100058707  0.19925397028109168  1.0000
  C   C90       1.0  0.927271827400215  0.284502609377022  0.3007460299097834  1.0000
  C   C91       1.0  0.9272718271733741  0.21549739022668793  0.8007460299928115  1.0000
  C   C92       1.0  0.0727281729941036  0.7154973908555367  0.6992539703615118  1.0000
  C   C93       1.0  0.27939615807117923  0.16728346588640827  0.47071398953819654  1.0000
  C   C94       1.0  0.7206038419645635  0.6672834665152569  0.029286010652678426  1.0000
  C   C95       1.0  0.7206038417377226  0.8327165343461503  0.5292860107357066  1.0000
  C   C96       1.0  0.2793961584245466  0.33271653371730164  0.9707139890256201  1.0000
  C   C97       1.0  0.12738882637616103  0.8334059842583675  0.13376064347122169  1.0000
  C   C98       1.0  0.8726111736595816  0.33340598362951884  0.3662393567196533  1.0000
  C   C99       1.0  0.8726111734275326  0.16659401597419105  0.8662393562096848  1.0000
  C   C100      1.0  0.12738882614932026  0.666594015577901  0.6337606435542499  1.0000
  N   N1        1.0  0.23199201206323145  0.9047448488108835  0.4238818613429944  1.0000
  N   N2        1.0  0.7680079879725112  0.4047448481820348  0.07611813884788063  1.0000
  N   N3        1.0  0.7680079883258787  0.0952551514216751  0.5761181383353042  1.0000
  N   N4        1.0  0.2319920118363907  0.5952551520505237  0.9238818614260226  1.0000
  N   N5        1.0  0.07793764902118179  0.8495962563103772  0.39024722582833277  1.0000
  N   N6        1.0  0.9220623510145609  0.3495962556815284  0.10975277436254226  1.0000
  N   N7        1.0  0.9220623507877201  0.1504037439221815  0.6097527744455704  1.0000
  N   N8        1.0  0.07793764937975764  0.6504037435258915  0.8902472259087529  1.0000
  N   N9        1.0  0.973626020193769  0.8438034605109828  0.2970595643905087  1.0000
  N   N10       1.0  0.026373979841973615  0.3438034609072729  0.2029404358003663  1.0000
  N   N11       1.0  0.026373980200549447  0.15619653972157582  0.7029404358807865  1.0000
  N   N12       1.0  0.9736260199669283  0.6561965393252858  0.7970595644735369  1.0000
  N   N13       1.0  0.3321583816889356  0.6952920817757953  0.41293382684999475  1.0000
  N   N14       1.0  0.6678416183468071  0.1952920811469466  0.08706617334088027  1.0000
  N   N15       1.0  0.6678416187053829  0.3047079184567633  0.5870661734213005  1.0000
  N   N16       1.0  0.33215838146209475  0.8047079180604733  0.9129338269330229  1.0000
  N   N17       1.0  0.400680610673049  0.522102021484022  0.3432293037788425  1.0000
  N   N18       1.0  0.5993193893626937  0.022102020855173224  0.15677069641203256  1.0000
  N   N19       1.0  0.5993193891358529  0.4778979787485367  0.6567706964950608  1.0000
  N   N20       1.0  0.40068061103162483  0.9778979793773854  0.8432293038592626  1.0000
  O   O1        1.0  0.4286791946123362  0.8203603777038382  0.4751476604837226  1.0000
  O   O2        1.0  0.5713208054234065  0.3203603781001283  0.024852339707152414  1.0000
  O   O3        1.0  0.5713208057819822  0.1796396225287204  0.5248523397875726  1.0000
  O   O4        1.0  0.42867919438549545  0.6796396221324303  0.9751476605667507  1.0000
  O   O5        1.0  0.05058997407054612  0.07963921747313156  0.3936128535684899  1.0000
  O   O6        1.0  0.9494100259651964  0.5796392170768415  0.1063871466223851  1.0000
  O   O7        1.0  0.9494100257331474  0.9203607827594271  0.6063871461124166  1.0000
  O   O8        1.0  0.05058997442912196  0.4203607831557171  0.8936128536489101  1.0000
  F   F1        1.0  0.669215707667786  0.7115101340636726  0.2394227458680381  1.0000
  F   F2        1.0  0.33078429236274826  0.2115101334348239  0.26057725372984036  1.0000
  F   F3        1.0  0.33078429213590743  0.28848986616888606  0.7605772538128686  1.0000
  F   F4        1.0  0.669215708026362  0.7884898667977347  0.7394227459484582  1.0000
  F   F5        1.0  0.6074823564337118  0.4286535346722603  0.3236794025850778  1.0000
  F   F6        1.0  0.3925176435968224  0.9286535342759702  0.17632059701280065  1.0000
  F   F7        1.0  0.3925176433699817  0.5713464655602983  0.6763205970958288  1.0000
  F   F8        1.0  0.6074823562068711  0.07134646493144961  0.823679402668106  1.0000
  F   F9        1.0  0.7116368139400482  0.4866631244674563  0.2427533049965412  1.0000
  F   F10       1.0  0.2883631860904862  0.9866631240711661  0.2572466946013372  1.0000
  F   F11       1.0  0.2883631858636454  0.5133368757651023  0.7572466946843655  1.0000
  F   F12       1.0  0.7116368142986239  0.013336876161392461  0.7427533050769614  1.0000
  F   F13       1.0  0.6907641384689931  0.6045723913864673  0.3606305826783345  1.0000
  F   F14       1.0  0.30923586156674954  0.10457239075761861  0.13936941751254053  1.0000
  F   F15       1.0  0.30923586133990877  0.3954276088460913  0.6393694175955685  1.0000
  F   F16       1.0  0.6907641388275689  0.8954276084498012  0.8606305827587546  1.0000
  F   F17       1.0  0.564211416083485  0.6552535131341001  0.3200348200176988  1.0000
  F   F18       1.0  0.43578858395225756  0.15525351353039024  0.17996518017317625  1.0000
  F   F19       1.0  0.43578858372541684  0.34474648709845845  0.6799651802562043  1.0000
  F   F20       1.0  0.5642114164420609  0.8447464867021683  0.820034820098119  1.0000
  F   F21       1.0  0.5837931595979149  0.5355036187573105  0.20317971498114554  1.0000
  F   F22       1.0  0.4162068398524113  0.035503619153600535  0.2968202852123375  1.0000
  F   F23       1.0  0.4162068402109871  0.4644963814752482  0.7968202852927576  1.0000
  F   F24       1.0  0.5837931599564906  0.9644963810789581  0.7031797150615656  1.0000
  P   P1        1.0  0.6379595197022971  0.5700911103362402  0.28110044301852155  1.0000
  P   P2        1.0  0.36204048033344555  0.07009111073253023  0.2188995571723535  1.0000
  P   P3        1.0  0.3620404801066047  0.42990888989631854  0.7188995572553817  1.0000
  P   P4        1.0  0.6379595194754564  0.9299088895000284  0.7811004431015498  1.0000
  I   I1        1.0  0.1485707129444187  0.5184630555935215  0.40901066648352863  1.0000
  I   I2        1.0  0.851429287091324  0.018463055989811582  0.0909893337073464  1.0000
  I   I3        1.0  0.8514292874446914  0.48153694361389837  0.59098933319477  1.0000
  I   I4        1.0  0.14857071271757794  0.981536944242747  0.9090106665665568  1.0000
