data_image0
_chemical_formula_structural       H104C84N16O12S4
_chemical_formula_sum              "H104 C84 N16 O12 S4"
_cell_length_a       14.983361684095426
_cell_length_b       8.233104794243035
_cell_length_c       16.583875034018675
_cell_angle_alpha    90.0
_cell_angle_beta     108.0601247542204
_cell_angle_gamma    90.0

_space_group_name_H-M_alt    "P 1"
_space_group_IT_number       1

loop_
  _space_group_symop_operation_xyz
  'x, y, z'

loop_
  _atom_site_type_symbol
  _atom_site_label
  _atom_site_symmetry_multiplicity
  _atom_site_fract_x
  _atom_site_fract_y
  _atom_site_fract_z
  _atom_site_occupancy
  H   H1        1.0  0.48728860027553783  0.5712511995825286  0.8861355146936362  1.0000
  H   H2        1.0  0.5127113996006157  0.07125119923290552  0.6138644855965852  1.0000
  H   H3        1.0  0.5127113994465003  0.42874879990210885  0.1138644853991901  1.0000
  H   H4        1.0  0.4872886001214224  0.9287488002517318  0.38613551449624106  1.0000
  H   H5        1.0  0.5054834555661392  0.39675507984352454  0.8300505605980585  1.0000
  H   H6        1.0  0.49451654431001435  0.8967550801931474  0.6699494396921629  1.0000
  H   H7        1.0  0.494516544155899  0.6032449208557213  0.1699494394947678  1.0000
  H   H8        1.0  0.5054834554120238  0.10324492050609843  0.33005056040066333  1.0000
  H   H9        1.0  0.6128197362521046  0.6870720549986743  0.8467796715030886  1.0000
  H   H10       1.0  0.3871802636241083  0.18707205464905138  0.6532203281841539  1.0000
  H   H11       1.0  0.38718026346993356  0.312927944485963  0.15322032858973755  1.0000
  H   H12       1.0  0.6128197360979891  0.812927944835586  0.34677967130569365  1.0000
  H   H13       1.0  0.6504841019826627  0.493219751416191  0.8215424422468981  1.0000
  H   H14       1.0  0.34951589789349086  0.9932197505512055  0.6784575580433232  1.0000
  H   H15       1.0  0.34951589773937547  0.506780249283055  0.1784575578459281  1.0000
  H   H16       1.0  0.6504841025305402  0.006780248933431972  0.32154244224617884  1.0000
  H   H17       1.0  0.6467815386602191  0.25782872598491774  0.10014035694143526  1.0000
  H   H18       1.0  0.35321846090770365  0.7578287263345408  0.3998596429539959  1.0000
  H   H19       1.0  0.353218461061819  0.7421712734997196  0.899859643151391  1.0000
  H   H20       1.0  0.6467815388143345  0.24217127436470523  0.6001403571388303  1.0000
  H   H21       1.0  0.7117987706615229  0.0699277301076711  0.1621029500141595  1.0000
  H   H22       1.0  0.28820122890639976  0.5699277292426855  0.3378970498812716  1.0000
  H   H23       1.0  0.2882012290605745  0.9300722705915748  0.837897049475688  1.0000
  H   H24       1.0  0.7117987708156384  0.4300722702419519  0.6621029502115545  1.0000
  H   H25       1.0  0.6655128878102451  0.6747189121027991  0.22388082232442758  1.0000
  H   H26       1.0  0.3344871124596705  0.17471891296778472  0.2761191777676794  1.0000
  H   H27       1.0  0.3344871119117929  0.32528108738183825  0.7761191777683987  1.0000
  H   H28       1.0  0.6655128879643606  0.8252810877314612  0.7238808225218226  1.0000
  H   H29       1.0  0.7157011836710178  0.7402470018675793  0.14504747377523083  1.0000
  H   H30       1.0  0.2842988158969051  0.24024700151795633  0.3549525261202003  1.0000
  H   H31       1.0  0.2842988160510205  0.25975299883166664  0.8549525263175953  1.0000
  H   H32       1.0  0.7157011838251923  0.759752997966681  0.6450474733696472  1.0000
  H   H33       1.0  0.6461051485733074  0.8759031714308488  0.18388887306814647  1.0000
  H   H34       1.0  0.3538948516966084  0.37590317108122584  0.31611112702396055  1.0000
  H   H35       1.0  0.3538948518507238  0.12409682926839716  0.8161111272213556  1.0000
  H   H36       1.0  0.646105148025489  0.6240968284034115  0.6838888724658869  1.0000
  H   H37       1.0  0.8619715287321279  0.7389859490497821  0.3906682665395436  1.0000
  H   H38       1.0  0.1380284715377878  0.2389859487001591  0.10933173355256333  1.0000
  H   H39       1.0  0.1380284716919032  0.2610140504348552  0.6093317337499585  1.0000
  H   H40       1.0  0.8619715288862434  0.7610140507844781  0.8906682667369388  1.0000
  H   H41       1.0  0.8935859769463396  0.6578781292553669  0.3031111755983589  1.0000
  H   H42       1.0  0.10641402332357598  0.1578781301203525  0.1968888244937481  1.0000
  H   H43       1.0  0.10641402347769137  0.34212187022927043  0.6968888246911433  1.0000
  H   H44       1.0  0.8935859771005144  0.8421218705788934  0.8031111751927753  1.0000
  H   H45       1.0  0.7880139063544155  0.5953398350312935  0.3224783837251899  1.0000
  H   H46       1.0  0.2119860932135072  0.09533983589627915  0.17752161617024126  1.0000
  H   H47       1.0  0.21198609336768187  0.40466016445334385  0.6775216157646575  1.0000
  H   H48       1.0  0.7880139065085309  0.9046601648029668  0.8224783839225851  1.0000
  H   H49       1.0  0.9543909923654769  0.9178681152320731  0.36724076796360916  1.0000
  H   H50       1.0  0.045609007202445845  0.4178681148824502  0.132759231931822  1.0000
  H   H51       1.0  0.04560900735656124  0.08213188546717277  0.6327592321292171  1.0000
  H   H52       1.0  0.9543909925196516  0.5821318846021871  0.8672407675580255  1.0000
  H   H53       1.0  0.03314497522958139  0.16953831329537142  0.3558083787659001  1.0000
  H   H54       1.0  0.9668550243383414  0.6695383124303858  0.14419162112953107  1.0000
  H   H55       1.0  0.9668550244924567  0.8304616874038745  0.6441916213269262  1.0000
  H   H56       1.0  0.033144975383696776  0.33046168705425155  0.8558083789632952  1.0000
  H   H57       1.0  0.9541556394471098  0.38044261530476264  0.24716512125184986  1.0000
  H   H58       1.0  0.04584436082280588  0.8804426156543856  0.25283487884025707  1.0000
  H   H59       1.0  0.045844360976980546  0.6195573841798747  0.7528348784346734  1.0000
  H   H60       1.0  0.9541556388992322  0.1195573838302517  0.7471651212525691  1.0000
  H   H61       1.0  0.4746340670506813  0.7994786966154701  0.5218524358258786  1.0000
  H   H62       1.0  0.5253659335275245  0.2994786974804558  0.9781475640580398  1.0000
  H   H63       1.0  0.5253659333733498  0.2005213028691672  0.47814756446362355  1.0000
  H   H64       1.0  0.47463406689656584  0.7005213032187901  0.021852435628483432  1.0000
  H   H65       1.0  0.6885965495258154  0.5796596544400942  0.5246760148150311  1.0000
  H   H66       1.0  0.3114034510523904  0.07965965530507979  0.9753239850688872  1.0000
  H   H67       1.0  0.3114034508982157  0.42034034504454315  0.4753239854744709  1.0000
  H   H68       1.0  0.6885965493717  0.9203403453941662  0.02467601461763611  1.0000
  H   H69       1.0  0.9288969499999503  0.5033407825560189  0.6202043279255826  1.0000
  H   H70       1.0  0.07110304987626245  0.0033407822063959113  0.87979567176166  1.0000
  H   H71       1.0  0.07110305042414003  0.4966592181432271  0.37979567176094065  1.0000
  H   H72       1.0  0.9288969498457758  0.9966592184928501  0.12020432833116634  1.0000
  H   H73       1.0  0.8214974144995769  0.6094025966374568  0.5824037744709426  1.0000
  H   H74       1.0  0.17850258537657665  0.10940259628783384  0.9175962258192787  1.0000
  H   H75       1.0  0.17850258592445425  0.3905974040617891  0.4175962258185593  1.0000
  H   H76       1.0  0.8214974143454614  0.8905974031968035  0.0824037742735476  1.0000
  H   H77       1.0  0.907299595649972  0.6330105920240708  0.5296741613572241  1.0000
  H   H78       1.0  0.09270040422618145  0.13301059167444793  0.9703258389329972  1.0000
  H   H79       1.0  0.092700404774059  0.3669894074605664  0.4703258389322779  1.0000
  H   H80       1.0  0.9072995954958567  0.8669894078101894  0.02967416115982905  1.0000
  H   H81       1.0  0.8762741806591476  0.18052235664961544  0.4729090153211717  1.0000
  H   H82       1.0  0.12372581890877511  0.6805223569992385  0.027090984574259482  1.0000
  H   H83       1.0  0.12372581906294979  0.8194776428350219  0.5270909841686758  1.0000
  H   H84       1.0  0.876274180813263  0.31947764370000753  0.9729090155185668  1.0000
  H   H85       1.0  0.9646675972923113  0.290259474368772  0.5497780916723756  1.0000
  H   H86       1.0  0.03533240258384223  0.790259474718395  0.9502219086178457  1.0000
  H   H87       1.0  0.03533240242972684  0.7097405251158654  0.4502219084204507  1.0000
  H   H88       1.0  0.964667597840189  0.20974052476624236  0.049778091671656324  1.0000
  H   H89       1.0  0.9317074780218986  0.34965558582625533  0.4409289052799373  1.0000
  H   H90       1.0  0.06829252154602422  0.8496555861758783  0.0590710946154939  1.0000
  H   H91       1.0  0.06829252170013961  0.6503444136583819  0.559071094812889  1.0000
  H   H92       1.0  0.9317074781760731  0.1503444145233676  0.9409289048743535  1.0000
  H   H93       1.0  0.7768968054739135  0.2636844330607843  0.35405206582255483  1.0000
  H   H94       1.0  0.22310319479600224  0.7636844334104073  0.14594793426955222  1.0000
  H   H95       1.0  0.22310319495011766  0.7363155664238531  0.6459479344669473  1.0000
  H   H96       1.0  0.776896805628088  0.23631556728883865  0.8540520654169711  1.0000
  H   H97       1.0  0.618709432306394  0.28327621453704943  0.2518350019331144  1.0000
  H   H98       1.0  0.3812905679635218  0.7832762148866724  0.24816499815899254  1.0000
  H   H99       1.0  0.38129056741564427  0.7167237849475879  0.7481649981597118  1.0000
  H   H100      1.0  0.6187094324605092  0.21672378581257357  0.7518350021305095  1.0000
  H   H101      1.0  0.49477299835231325  0.45202990281410244  0.28551751436746386  1.0000
  H   H102      1.0  0.5052270012156095  0.9520299031637254  0.21448248552796734  1.0000
  H   H103      1.0  0.5052270013697249  0.547970096670535  0.7144824857253623  1.0000
  H   H104      1.0  0.494772998506488  0.04797009632091191  0.7855175139618802  1.0000
  C   C1        1.0  0.6576968874821768  0.41791255498240565  0.008273327509364822  1.0000
  C   C2        1.0  0.3423031127877388  0.9179125553320286  0.49172667258274205  1.0000
  C   C3        1.0  0.3423031129418541  0.5820874445022317  0.9917266727801372  1.0000
  C   C4        1.0  0.6576968869342993  0.08208744536721731  0.5082733275100841  1.0000
  C   C5        1.0  0.5395156091840309  0.48057924791224305  0.8818925268340271  1.0000
  C   C6        1.0  0.4604843906921227  0.9805792470472574  0.6181074734561942  1.0000
  C   C7        1.0  0.46048439053800727  0.519420752787003  0.1181074732587992  1.0000
  C   C8        1.0  0.5395156097319084  0.01942075243737995  0.38189252683330777  1.0000
  C   C9        1.0  0.6257003414736109  0.5605536301720692  0.8674420297806373  1.0000
  C   C10       1.0  0.37429965840254265  0.060553631037054835  0.6325579705095841  1.0000
  C   C11       1.0  0.3742996589504202  0.43944636931256814  0.13255797050886473  1.0000
  C   C12       1.0  0.6257003413194955  0.9394463696621912  0.36744202958324224  1.0000
  C   C13       1.0  0.7867219303362718  0.3590596590082388  0.1323819683306064  1.0000
  C   C14       1.0  0.21327806993364387  0.8590596593578618  0.3676180317615005  1.0000
  C   C15       1.0  0.21327807008781854  0.6409403404763986  0.8676180313559169  1.0000
  C   C16       1.0  0.7867219304903872  0.1409403401267756  0.6323819685280015  1.0000
  C   C17       1.0  0.8274845622265031  0.23806287408979898  0.1999610823862285  1.0000
  C   C18       1.0  0.17251543804341246  0.738062874439422  0.3000389177058785  1.0000
  C   C19       1.0  0.1725154374955349  0.7619371253948384  0.8000389177065979  1.0000
  C   C20       1.0  0.8274845623806186  0.2619371250452154  0.6999610825836237  1.0000
  C   C21       1.0  0.7813437393655701  0.09294818286961433  0.20582548128346642  1.0000
  C   C22       1.0  0.21865626020235257  0.5929481832192374  0.29417451861196475  1.0000
  C   C23       1.0  0.21865626035652722  0.907051816615023  0.7941745182063811  1.0000
  C   C24       1.0  0.7813437395196856  0.40705181626540005  0.7058254814808615  1.0000
  C   C25       1.0  0.8249011733641592  0.9729953911920932  0.2663149216528703  1.0000
  C   C26       1.0  0.1750988262037636  0.47299539205707886  0.23368507824256085  1.0000
  C   C27       1.0  0.175098826357879  0.027004608292544096  0.7336850784399559  1.0000
  C   C28       1.0  0.8249011735182745  0.527004608642167  0.7663149218502654  1.0000
  C   C29       1.0  0.6981921707067161  0.7781529410969966  0.2022015776853862  1.0000
  C   C30       1.0  0.3018078288612066  0.27815294074737357  0.297798422210045  1.0000
  C   C31       1.0  0.30180782901532194  0.2218470583876408  0.79779842240744  1.0000
  C   C32       1.0  0.6981921708608909  0.7218470587372637  0.7022015772798026  1.0000
  C   C33       1.0  0.8341674220833307  0.6991862224352094  0.3241850413300717  1.0000
  C   C34       1.0  0.1658325774845921  0.19918622208558648  0.1758149585653595  1.0000
  C   C35       1.0  0.1658325776387075  0.30081377704942786  0.6758149587627545  1.0000
  C   C36       1.0  0.834167422237446  0.8008137773990508  0.8241850415274669  1.0000
  C   C37       1.0  0.9165156093949455  0.0068028783065124995  0.3208030386032651  1.0000
  C   C38       1.0  0.08348439087497021  0.5068028774415269  0.17919696148884187  1.0000
  C   C39       1.0  0.08348439032715191  0.9931971223927334  0.6791969608865823  1.0000
  C   C40       1.0  0.9165156095490609  0.49319712204311045  0.8208030388006603  1.0000
  C   C41       1.0  0.9616677418693579  0.15189648635038178  0.31427607441620564  1.0000
  C   C42       1.0  0.0383322584005578  0.6518964854853961  0.18572392567590137  1.0000
  C   C43       1.0  0.03833225855473247  0.8481035143488642  0.6857239252703177  1.0000
  C   C44       1.0  0.9616677420234733  0.34810351399924117  0.8142760746136007  1.0000
  C   C45       1.0  0.9184906443105806  0.26886952921428525  0.2543556123357936  1.0000
  C   C46       1.0  0.08150935595933523  0.7688695295639083  0.24564438775631328  1.0000
  C   C47       1.0  0.0815093561134506  0.731130470270352  0.7456443879537085  1.0000
  C   C48       1.0  0.918490643762703  0.23113046992072905  0.7543556123365129  1.0000
  C   C49       1.0  0.5869073175892908  0.5244065292377901  0.40713708509979757  1.0000
  C   C50       1.0  0.4130926826806249  0.024406528888167137  0.09286291499230942  1.0000
  C   C51       1.0  0.4130926828347995  0.4755934702468472  0.5928629145867257  1.0000
  C   C52       1.0  0.5869073170414132  0.9755934705964703  0.9071370851005168  1.0000
  C   C53       1.0  0.5151555878533  0.6269873199730852  0.4295364071234784  1.0000
  C   C54       1.0  0.48484441241661574  0.1269873196234623  0.07046359296862859  1.0000
  C   C55       1.0  0.48484441186879745  0.3730126807261607  0.570463592366369  1.0000
  C   C56       1.0  0.5151555880074153  0.873012679861175  0.9295364073208735  1.0000
  C   C57       1.0  0.6765543538213121  0.5138030336936736  0.4655078509796428  1.0000
  C   C58       1.0  0.32344564644860363  0.013803033344050666  0.03449214911246419  1.0000
  C   C59       1.0  0.323445646602719  0.4861969657909637  0.5344921493098593  1.0000
  C   C60       1.0  0.6765543532734345  0.9861969661405867  0.9655078509803621  1.0000
  C   C61       1.0  0.7474474445159506  0.4196162136082266  0.44897886285235344  1.0000
  C   C62       1.0  0.2525525557539651  0.9196162139578495  0.051021137239753524  1.0000
  C   C63       1.0  0.2525525559080805  0.5803837858764107  0.5510211374371486  1.0000
  C   C64       1.0  0.747447444670066  0.08038378552678774  0.9489788630497485  1.0000
  C   C65       1.0  0.8749520892606976  0.5450955322636116  0.5626221940604764  1.0000
  C   C66       1.0  0.12504791061545587  0.04509553312859729  0.9373778062297449  1.0000
  C   C67       1.0  0.12504791046134048  0.4549044672210257  0.43737780603234977  1.0000
  C   C68       1.0  0.8749520891065823  0.9549044675706487  0.06262219386308138  1.0000
  C   C69       1.0  0.9052302543194058  0.3021253758046813  0.4914733582180449  1.0000
  C   C70       1.0  0.09476974595050978  0.8021253749396957  0.008526641874062095  1.0000
  C   C71       1.0  0.09476974610462516  0.6978746248945646  0.5085266420714571  1.0000
  C   C72       1.0  0.9052302544735213  0.1978746245449417  0.9914733584154399  1.0000
  C   C73       1.0  0.7244411361146993  0.3365406756315616  0.3704797410790547  1.0000
  C   C74       1.0  0.2755588641552164  0.8365406759811845  0.12952025901305225  1.0000
  C   C75       1.0  0.2755588643093911  0.6634593250676843  0.6295202586074686  1.0000
  C   C76       1.0  0.7244411362688147  0.16345932471806138  0.8704797412764498  1.0000
  C   C77       1.0  0.6345812083826103  0.3486791716786277  0.31194429047718825  1.0000
  C   C78       1.0  0.36541879118531234  0.8486791720282507  0.18805570941824287  1.0000
  C   C79       1.0  0.3654187913394278  0.6513208278060096  0.688055709615638  1.0000
  C   C80       1.0  0.6345812085367851  0.15132082867099525  0.8119442900716046  1.0000
  C   C81       1.0  0.5653376855807398  0.4421783544581632  0.32958234229323147  1.0000
  C   C82       1.0  0.4346623139871829  0.9421783535931776  0.1704176576021997  1.0000
  C   C83       1.0  0.43466231414135764  0.5578216462410827  0.6704176571966161  1.0000
  C   C84       1.0  0.5653376857348552  0.0578216458914597  0.8295823424906266  1.0000
  N   N1        1.0  0.5717941858849552  0.3888484939774588  0.960418912325231  1.0000
  N   N2        1.0  0.4282058139911983  0.8888484943270818  0.5395810879649903  1.0000
  N   N3        1.0  0.4282058145390758  0.6111515055071786  0.03958108796427102  1.0000
  N   N4        1.0  0.57179418573084  0.11115150637216416  0.460418912127836  1.0000
  N   N5        1.0  0.6933934679134162  0.33914040568904447  0.08340837106634774  1.0000
  N   N6        1.0  0.3066065323564995  0.8391404060386675  0.41659162902575925  1.0000
  N   N7        1.0  0.30660653180862196  0.6608595950102014  0.9165916290264785  1.0000
  N   N8        1.0  0.693393468067591  0.1608595946605785  0.5834083706607641  1.0000
  N   N9        1.0  0.7804269885587056  0.8280214876855315  0.27120305390975913  1.0000
  N   N10       1.0  0.21957301171121005  0.32802148733590863  0.22879694618234783  1.0000
  N   N11       1.0  0.2195730111633325  0.1719785130137144  0.7287969461830671  1.0000
  N   N12       1.0  0.7804269887128803  0.6719785133633374  0.7712030535041754  1.0000
  N   N13       1.0  0.8356627557318752  0.40637467196330174  0.509253428221425  1.0000
  N   N14       1.0  0.16433724414433756  0.9063746723129247  0.9907465714658175  1.0000
  N   N15       1.0  0.16433724469221514  0.5936253275213356  0.4907465714650981  1.0000
  N   N16       1.0  0.8356627555777005  0.09362532717171264  0.009253428627008814  1.0000
  O   O1        1.0  0.8330632619727776  0.47339707648630086  0.11742039987332502  1.0000
  O   O2        1.0  0.16693673829713818  0.9733970756213152  0.38257960021878196  1.0000
  O   O3        1.0  0.1669367384512536  0.5266029242129452  0.8825796004161771  1.0000
  O   O4        1.0  0.8330632621269521  0.026602923863322147  0.6174203994677413  1.0000
  O   O5        1.0  0.43500514459551454  0.6477823449701818  0.37432595091763116  1.0000
  O   O6        1.0  0.5649948549724082  0.14778234462055892  0.12567404897780005  1.0000
  O   O7        1.0  0.5649948551265829  0.3522176545144554  0.6256740485722163  1.0000
  O   O8        1.0  0.4350051447496299  0.8522176548640784  0.8743259511150262  1.0000
  O   O9        1.0  0.541032758059488  0.6918350649420703  0.5030933438851872  1.0000
  O   O10       1.0  0.45896724181672466  0.19183506459244729  0.9969066558020553  1.0000
  O   O11       1.0  0.45896724166255004  0.3081649357571757  0.496906656207639  1.0000
  O   O12       1.0  0.5410327579053728  0.80816493489219  0.003093343687792139  1.0000
  S   S1        1.0  0.7203898718541365  0.5578932984324179  0.9688742054544969  1.0000
  S   S2        1.0  0.2796101280220763  0.05789329929740354  0.5311257942327458  1.0000
  S   S3        1.0  0.2796101278679609  0.44210670105221944  0.031125794035350714  1.0000
  S   S4        1.0  0.7203898724019547  0.9421067014018424  0.4688742060567563  1.0000
