data_image0
_chemical_formula_structural       H64C80N16Cl4I12
_chemical_formula_sum              "H64 C80 N16 Cl4 I12"
_cell_length_a       14.028973520401609
_cell_length_b       21.10158566043037
_cell_length_c       8.055227670247548
_cell_angle_alpha    90.0
_cell_angle_beta     109.11272084853589
_cell_angle_gamma    90.0

_space_group_name_H-M_alt    "P 1"
_space_group_IT_number       1

loop_
  _space_group_symop_operation_xyz
  'x, y, z'

loop_
  _atom_site_type_symbol
  _atom_site_label
  _atom_site_symmetry_multiplicity
  _atom_site_fract_x
  _atom_site_fract_y
  _atom_site_fract_z
  _atom_site_occupancy
  H   H1        1.0  0.4195574556702047  0.21666612564445328  0.2754778505221302  1.0000
  H   H2        1.0  0.9195574559919071  0.7166661256342558  0.2754778510961865  1.0000
  H   H3        1.0  0.5804425438947189  0.21666612564445328  0.7245221491073376  1.0000
  H   H4        1.0  0.08044254452814867  0.7166661256342558  0.7245221498601604  1.0000
  H   H5        1.0  0.5804425438947189  0.7833338743351517  0.7245221491073376  1.0000
  H   H6        1.0  0.08044254452814867  0.2833338743453491  0.7245221498601604  1.0000
  H   H7        1.0  0.4195574556702047  0.7833338743351517  0.2754778505221302  1.0000
  H   H8        1.0  0.9195574559919071  0.2833338743453491  0.2754778510961865  1.0000
  H   H9        1.0  0.33750043746837105  0.12351675139217203  0.40586589969134557  1.0000
  H   H10       1.0  0.8375004368349412  0.6235167513819745  0.40586589893852265  1.0000
  H   H11       1.0  0.6624995630516847  0.12351675139217203  0.5941341012650014  1.0000
  H   H12       1.0  0.16249956272998237  0.6235167513819745  0.5941341006909451  1.0000
  H   H13       1.0  0.6624995630516847  0.8764832485874329  0.5941341012650014  1.0000
  H   H14       1.0  0.16249956272998237  0.37648324859763044  0.5941341006909451  1.0000
  H   H15       1.0  0.33750043746837105  0.8764832485874329  0.40586589969134557  1.0000
  H   H16       1.0  0.8375004368349412  0.37648324859763044  0.40586589893852265  1.0000
  H   H17       1.0  0.4262380797096995  0.052238454860150926  0.992771186351835  1.0000
  H   H18       1.0  0.9262380793161658  0.5522384548499534  0.9927711869128015  1.0000
  H   H19       1.0  0.5737619205704603  0.052238454860150926  0.007228813290722623  1.0000
  H   H20       1.0  0.07376192048865388  0.5522384548499534  0.007228814030455492  1.0000
  H   H21       1.0  0.5737619205704603  0.947761545593352  0.007228813290722623  1.0000
  H   H22       1.0  0.07376192048865388  0.4477615456035496  0.007228814030455492  1.0000
  H   H23       1.0  0.4262380797096995  0.947761545593352  0.992771186351835  1.0000
  H   H24       1.0  0.9262380793161658  0.4477615456035496  0.9927711869128015  1.0000
  H   H25       1.0  0.15624324147332952  0.0  0.1812756953889107  1.0000
  H   H26       1.0  0.6562432415551358  0.4999999999898025  0.18127569464917784  1.0000
  H   H27       1.0  0.8437567583314901  0.0  0.8187243055543463  1.0000
  H   H28       1.0  0.34375675872502387  0.4999999999898025  0.8187243049933799  1.0000
  H   H29       1.0  0.05587854461991638  0.0  0.38805532097716333  1.0000
  H   H30       1.0  0.5558785447017227  0.4999999999898025  0.3880553202374305  1.0000
  H   H31       1.0  0.9441214556602434  0.0  0.6119446786653943  1.0000
  H   H32       1.0  0.444121455578437  0.4999999999898025  0.6119446794051273  1.0000
  H   H33       1.0  0.14338237325244638  0.0  0.6994028382384805  1.0000
  H   H34       1.0  0.6433823735741487  0.4999999999898025  0.6994028388125367  1.0000
  H   H35       1.0  0.8566176270277134  0.0  0.30059716140407733  1.0000
  H   H36       1.0  0.35661762670601105  0.4999999999898025  0.30059716083002097  1.0000
  H   H37       1.0  0.3128759272153038  0.0  0.8231421942033099  1.0000
  H   H38       1.0  0.8128759275370063  0.4999999999898025  0.8231421947773664  1.0000
  H   H39       1.0  0.6871240723496197  0.0  0.17685780542615778  1.0000
  H   H40       1.0  0.18712407298304953  0.4999999999898025  0.1768578061789806  1.0000
  H   H41       1.0  0.4279456587425096  0.0  0.632825262668512  1.0000
  H   H42       1.0  0.9279456588243159  0.4999999999898025  0.6328252619287792  1.0000
  H   H43       1.0  0.5720543415376502  0.0  0.3671747369740457  1.0000
  H   H44       1.0  0.0720543414558438  0.4999999999898025  0.3671747377137785  1.0000
  H   H45       1.0  0.3398023460115248  0.2527225226490982  0.95871904040583  1.0000
  H   H46       1.0  0.8398023460933312  0.7527225226389006  0.9587190396660971  1.0000
  H   H47       1.0  0.6601976537932949  0.2527225226490982  0.04128096053742707  1.0000
  H   H48       1.0  0.16019765418682863  0.7527225226389006  0.041280959976460654  1.0000
  H   H49       1.0  0.6601976537932949  0.7472774773305066  0.04128096053742707  1.0000
  H   H50       1.0  0.16019765418682863  0.2472774773407042  0.041280959976460654  1.0000
  H   H51       1.0  0.3398023460115248  0.7472774773305066  0.95871904040583  1.0000
  H   H52       1.0  0.8398023460933312  0.2472774773407042  0.9587190396660971  1.0000
  H   H53       1.0  0.34675534904330735  0.3718184138508945  0.9653195083129277  1.0000
  H   H54       1.0  0.8467553493650097  0.871818413840697  0.965319508886984  1.0000
  H   H55       1.0  0.6532446505216164  0.3718184138508945  0.03468049131654007  1.0000
  H   H56       1.0  0.15324465115504604  0.871818413840697  0.03468049206936289  1.0000
  H   H57       1.0  0.6532446505216164  0.6281815861287103  0.03468049131654007  1.0000
  H   H58       1.0  0.15324465115504604  0.12818158613890795  0.03468049206936289  1.0000
  H   H59       1.0  0.34675534904330735  0.6281815861287103  0.9653195083129277  1.0000
  H   H60       1.0  0.8467553493650097  0.12818158613890795  0.965319508886984  1.0000
  H   H61       1.0  0.5000000003217023  0.4223475346078914  5.740563576890213e-10  1.0000
  H   H62       1.0  0.0  0.9223475345976938  0.0  1.0000
  H   H63       1.0  0.5000000003217023  0.5776524653717134  5.740563576890213e-10  1.0000
  H   H64       1.0  0.0  0.07765246538191106  0.0  1.0000
  C   C1        1.0  0.4521210810053136  0.14141991308245302  0.10682923492925961  1.0000
  C   C2        1.0  0.9521210810871199  0.6414199130722554  0.10682923418952676  1.0000
  C   C3        1.0  0.5478789195147422  0.14141991308245302  0.8931707660270873  1.0000
  C   C4        1.0  0.04787891919303983  0.6414199130722554  0.8931707654530309  1.0000
  C   C5        1.0  0.5478789195147422  0.8585800868971519  0.8931707660270873  1.0000
  C   C6        1.0  0.04787891919303983  0.3585800869073494  0.8931707654530309  1.0000
  C   C7        1.0  0.4521210810053136  0.8585800868971519  0.10682923492925961  1.0000
  C   C8        1.0  0.9521210810871199  0.3585800869073494  0.10682923418952676  1.0000
  C   C9        1.0  0.4140154110783422  0.16737309493394573  0.2351386615505723  1.0000
  C   C10       1.0  0.9140154111601486  0.6673730949237482  0.23513866081083942  1.0000
  C   C11       1.0  0.5859845887264774  0.16737309493394573  0.7648613393926846  1.0000
  C   C12       1.0  0.08598458840477496  0.6673730949237482  0.7648613388186283  1.0000
  C   C13       1.0  0.5859845887264774  0.8326269050456592  0.7648613393926846  1.0000
  C   C14       1.0  0.08598458840477496  0.33262690505585674  0.7648613388186283  1.0000
  C   C15       1.0  0.4140154110783422  0.8326269050456592  0.2351386615505723  1.0000
  C   C16       1.0  0.9140154111601486  0.33262690505585674  0.23513866081083942  1.0000
  C   C17       1.0  0.3718249203962865  0.1187708639687547  0.30348606844872084  1.0000
  C   C18       1.0  0.8718249197628568  0.6187708639585572  0.30348606769589803  1.0000
  C   C19       1.0  0.6281750801237693  0.1187708639687547  0.696513932507626  1.0000
  C   C20       1.0  0.12817507980206685  0.6187708639585572  0.6965139319335697  1.0000
  C   C21       1.0  0.6281750801237693  0.8812291360108502  0.696513932507626  1.0000
  C   C22       1.0  0.12817507980206685  0.38122913602104774  0.6965139319335697  1.0000
  C   C23       1.0  0.3718249203962865  0.8812291360108502  0.30348606844872084  1.0000
  C   C24       1.0  0.8718249197628568  0.38122913602104774  0.30348606769589803  1.0000
  C   C25       1.0  0.3848367062517601  0.06066489744419955  0.22406934994468727  1.0000
  C   C26       1.0  0.8848367065734625  0.560664897434002  0.22406935051874363  1.0000
  C   C27       1.0  0.6151632933131637  0.06066489744419955  0.7759306496847805  1.0000
  C   C28       1.0  0.11516329370669727  0.560664897434002  0.7759306491238142  1.0000
  C   C29       1.0  0.6151632933131637  0.9393351025354053  0.7759306496847805  1.0000
  C   C30       1.0  0.11516329370669727  0.4393351025456029  0.7759306491238142  1.0000
  C   C31       1.0  0.3848367062517601  0.9393351025354053  0.22406934994468727  1.0000
  C   C32       1.0  0.8848367065734625  0.4393351025456029  0.22406935051874363  1.0000
  C   C33       1.0  0.36045141425213056  0.0  0.2697642772280544  1.0000
  C   C34       1.0  0.8604514143339369  0.4999999999898025  0.2697642764883216  1.0000
  C   C35       1.0  0.639548585312793  0.0  0.7302357224014133  1.0000
  C   C36       1.0  0.13954858594622283  0.4999999999898025  0.7302357231542361  1.0000
  C   C37       1.0  0.2997312853666801  0.0  0.39205463325525625  1.0000
  C   C38       1.0  0.7997312847332504  0.4999999999898025  0.39205463250243344  1.0000
  C   C39       1.0  0.7002687151533759  0.0  0.6079453677010906  1.0000
  C   C40       1.0  0.20026871483167333  0.4999999999898025  0.6079453671270344  1.0000
  C   C41       1.0  0.19438174926170565  0.0  0.3231288371939087  1.0000
  C   C42       1.0  0.694381749343512  0.4999999999898025  0.3231288364541759  1.0000
  C   C43       1.0  0.80561825125835  0.0  0.676871163762438  1.0000
  C   C44       1.0  0.3056182509366477  0.4999999999898025  0.6768711631883818  1.0000
  C   C45       1.0  0.13810212026303542  0.0  0.4360407428064511  1.0000
  C   C46       1.0  0.6381021205847378  0.4999999999898025  0.4360407433805074  1.0000
  C   C47       1.0  0.8618978800171243  0.0  0.5639592568361066  1.0000
  C   C48       1.0  0.3618978799353179  0.4999999999898025  0.5639592575758394  1.0000
  C   C49       1.0  0.2858671196112713  0.0  0.6803313054363177  1.0000
  C   C50       1.0  0.7858671192177377  0.4999999999898025  0.6803313059972841  1.0000
  C   C51       1.0  0.7141328806688885  0.0  0.31966869420624  1.0000
  C   C52       1.0  0.2141328805870821  0.4999999999898025  0.3196686949459729  1.0000
  C   C53       1.0  0.3462786160818206  0.0  0.5747710157886404  1.0000
  C   C54       1.0  0.846278616163627  0.4999999999898025  0.5747710150489075  1.0000
  C   C55       1.0  0.6537213837229991  0.0  0.4252289851546166  1.0000
  C   C56       1.0  0.15372138411653283  0.4999999999898025  0.4252289845936502  1.0000
  C   C57       1.0  0.5000000003217023  0.17301809630573226  5.740563576890213e-10  1.0000
  C   C58       1.0  0.0  0.6730180962955347  0.0  1.0000
  C   C59       1.0  0.5000000003217023  0.8269819036738727  5.740563576890213e-10  1.0000
  C   C60       1.0  0.0  0.3269819036840702  0.0  1.0000
  C   C61       1.0  0.5000000003217023  0.24239397940560647  5.740563576890213e-10  1.0000
  C   C62       1.0  0.0  0.742393979395409  0.0  1.0000
  C   C63       1.0  0.5000000003217023  0.7576060205739984  5.740563576890213e-10  1.0000
  C   C64       1.0  0.0  0.25760602058419596  0.0  1.0000
  C   C65       1.0  0.4110121046779926  0.27721347457642653  0.9801963181876773  1.0000
  C   C66       1.0  0.911012104999695  0.777213474566229  0.9801963187617336  1.0000
  C   C67       1.0  0.588987894886931  0.27721347457642653  0.01980368144179045  1.0000
  C   C68       1.0  0.08898789456522861  0.777213474566229  0.019803680867734094  1.0000
  C   C69       1.0  0.588987894886931  0.7227865254031783  0.01980368144179045  1.0000
  C   C70       1.0  0.08898789456522861  0.22278652541337596  0.019803680867734094  1.0000
  C   C71       1.0  0.4110121046779926  0.7227865254031783  0.9801963181876773  1.0000
  C   C72       1.0  0.911012104999695  0.22278652541337596  0.9801963187617336  1.0000
  C   C73       1.0  0.41274109007343823  0.34246466243298485  0.9804106290163861  1.0000
  C   C74       1.0  0.9127410903951406  0.8424646624227874  0.9804106295904425  1.0000
  C   C75       1.0  0.5872589094914853  0.34246466243298485  0.019589370613081622  1.0000
  C   C76       1.0  0.08725891012491513  0.8424646624227874  0.01958937136590444  1.0000
  C   C77       1.0  0.5872589094914853  0.65753533754662  0.019589370613081622  1.0000
  C   C78       1.0  0.08725891012491513  0.1575353375568176  0.01958937136590444  1.0000
  C   C79       1.0  0.41274109007343823  0.65753533754662  0.9804106290163861  1.0000
  C   C80       1.0  0.9127410903951406  0.1575353375568176  0.9804106295904425  1.0000
  N   N1        1.0  0.43736552292950626  0.07588271307035711  0.10717209096536544  1.0000
  N   N2        1.0  0.9373655232512087  0.5758827130601596  0.10717209153942178  1.0000
  N   N3        1.0  0.5626344773506534  0.07588271307035711  0.8928279086771922  1.0000
  N   N4        1.0  0.0626344770289511  0.5758827130601596  0.8928279081031358  1.0000
  N   N5        1.0  0.5626344773506534  0.9241172869092479  0.8928279086771922  1.0000
  N   N6        1.0  0.0626344770289511  0.4241172869194453  0.8928279081031358  1.0000
  N   N7        1.0  0.43736552292950626  0.9241172869092479  0.10717209096536544  1.0000
  N   N8        1.0  0.9373655232512087  0.4241172869194453  0.10717209153942178  1.0000
  N   N9        1.0  0.1852034675130284  0.0  0.6097337515249952  1.0000
  N   N10       1.0  0.6852034678347307  0.4999999999898025  0.6097337520990515  1.0000
  N   N11       1.0  0.8147965320518952  0.0  0.3902662481044725  1.0000
  N   N12       1.0  0.3147965319700889  0.4999999999898025  0.3902662488442054  1.0000
  N   N13       1.0  0.5000000003217023  0.3733936073237874  5.740563576890213e-10  1.0000
  N   N14       1.0  0.0  0.87339360731359  0.0  1.0000
  N   N15       1.0  0.5000000003217023  0.6266063926558175  5.740563576890213e-10  1.0000
  N   N16       1.0  0.0  0.12660639266601506  0.0  1.0000
  Cl  Cl1       1.0  0.08775097547503373  0.0  0.883016492086996  1.0000
  Cl  Cl2       1.0  0.5877509757967362  0.4999999999898025  0.8830164926610523  1.0000
  Cl  Cl3       1.0  0.912249024805126  0.0  0.11698350755556171  1.0000
  Cl  Cl4       1.0  0.41224902472331965  0.4999999999898025  0.11698350829529458  1.0000
  I   I1        1.0  2.959435677777163e-10  0.16322450906894326  0.49999999991066213  1.0000
  I   I2        1.0  0.4999999999024098  0.6632245090587457  0.5000000004716284  1.0000
  I   I3        1.0  2.959435677777163e-10  0.8367754909106616  0.49999999991066213  1.0000
  I   I4        1.0  0.4999999999024098  0.3367754909208592  0.5000000004716284  1.0000
  I   I5        1.0  0.2212310984274576  0.16844839753751023  0.6606014905703775  1.0000
  I   I6        1.0  0.7212310980339239  0.6684483975273127  0.6606014911313438  1.0000
  I   I7        1.0  0.7787689018527021  0.16844839753751023  0.33939850907218033  1.0000
  I   I8        1.0  0.2787689015309998  0.6684483975273127  0.3393985084981239  1.0000
  I   I9        1.0  0.7787689018527021  0.8315516024420947  0.33939850907218033  1.0000
  I   I10       1.0  0.2787689015309998  0.33155160245229226  0.3393985084981239  1.0000
  I   I11       1.0  0.2212310984274576  0.8315516024420947  0.6606014905703775  1.0000
  I   I12       1.0  0.7212310980339239  0.33155160245229226  0.6606014911313438  1.0000
