data_image0
_chemical_formula_structural       H56C40N12O12
_chemical_formula_sum              "H56 C40 N12 O12"
_cell_length_a       6.859958904159428
_cell_length_b       7.312799758576531
_cell_length_c       21.082925922728677
_cell_angle_alpha    83.49253846093976
_cell_angle_beta     82.7175108946222
_cell_angle_gamma    90.30878086350798

_space_group_name_H-M_alt    "P 1"
_space_group_IT_number       1

loop_
  _space_group_symop_operation_xyz
  'x, y, z'

loop_
  _atom_site_type_symbol
  _atom_site_label
  _atom_site_symmetry_multiplicity
  _atom_site_fract_x
  _atom_site_fract_y
  _atom_site_fract_z
  _atom_site_occupancy
  H   H1        1.0  0.2703426910020683  0.5856097432839302  0.29101189883933265  1.0000
  H   H2        1.0  0.7296573085519362  0.41439025666331003  0.7089881011833242  1.0000
  H   H3        1.0  0.8403052509380476  0.1600477584891281  0.9446935822271183  1.0000
  H   H4        1.0  0.15969475008565728  0.8399522414641462  0.055306417733566926  1.0000
  H   H5        1.0  0.8885169681831802  0.3247952236567055  0.2233532260907454  1.0000
  H   H6        1.0  0.11148303137082441  0.6752047762905345  0.7766467739319115  1.0000
  H   H7        1.0  0.922767191078445  0.562808619850533  0.20159686557444445  1.0000
  H   H8        1.0  0.07723280847555973  0.43719138009670727  0.7984031344482123  1.0000
  H   H9        1.0  0.5549462143330858  0.38950858343182404  0.06202158686538826  1.0000
  H   H10       1.0  0.4450537852209188  0.6104914165154162  0.9379784131572685  1.0000
  H   H11       1.0  0.4962946248034763  0.15616003200113554  0.08574413349194376  1.0000
  H   H12       1.0  0.5037053747505282  0.8438399679461045  0.9142558665307132  1.0000
  H   H13       1.0  0.17609225962140432  0.19182629894314568  0.04016308333145321  1.0000
  H   H14       1.0  0.8239077399326004  0.8081737010040945  0.9598369166912035  1.0000
  H   H15       1.0  0.2353007720747589  0.4229587185044126  0.01179435178685046  1.0000
  H   H16       1.0  0.7646992274792457  0.5770412814428275  0.9882056482358064  1.0000
  H   H17       1.0  0.8771194583443315  0.28204221251511324  0.10631770115277021  1.0000
  H   H18       1.0  0.12288054123271173  0.7179577888087072  0.8936822988171097  1.0000
  H   H19       1.0  0.9207576261993884  0.5189672372677275  0.0851239813494895  1.0000
  H   H20       1.0  0.07924237335461615  0.4810327626795126  0.9148760186731673  1.0000
  H   H21       1.0  0.2000899193438155  0.2644245038078264  0.15409259801592154  1.0000
  H   H22       1.0  0.7999100802332277  0.735575497515994  0.8459074019539585  1.0000
  H   H23       1.0  0.24711136426153724  0.4967395806979008  0.12435687065572996  1.0000
  H   H24       1.0  0.7528886352924672  0.5032604192493394  0.8756431293669269  1.0000
  H   H25       1.0  0.5991333691508256  0.5683844788070231  0.15278796233819383  1.0000
  H   H26       1.0  0.4008666304031788  0.43161552114021706  0.8472120376844631  1.0000
  H   H27       1.0  0.5707183114518106  0.33171071991549783  0.17646290986452415  1.0000
  H   H28       1.0  0.4292816881021939  0.6682892800317425  0.8235370901581328  1.0000
  H   H29       1.0  0.6831438040902817  0.7081758824679505  0.6518547646355111  1.0000
  H   H30       1.0  0.3168561969334235  0.2918241174853236  0.34814523532517405  1.0000
  H   H31       1.0  0.6709251003376353  0.9276866370254723  0.6293344873044351  1.0000
  H   H32       1.0  0.3290748992163692  0.07231336292176788  0.3706655127182218  1.0000
  H   H33       1.0  0.020870543451390704  0.8005080970370024  0.5716825174731333  1.0000
  H   H34       1.0  0.9791294561026139  0.19949190291023763  0.42831748254952356  1.0000
  H   H35       1.0  0.6673268343466695  0.6042133384620783  0.4242673746737952  1.0000
  H   H36       1.0  0.3326731652073351  0.39578666148516184  0.5757326253488616  1.0000
  H   H37       1.0  0.3809516323822036  0.7174696804652612  0.3890797255608078  1.0000
  H   H38       1.0  0.619048367171801  0.28253031948197904  0.610920274461849  1.0000
  H   H39       1.0  0.1948540304681194  0.8007021589717377  0.4902087756605175  1.0000
  H   H40       1.0  0.8051459691089239  0.19929784235208264  0.5097912243093625  1.0000
  H   H41       1.0  0.8780484225044942  0.5274684925843324  0.325675534178016  1.0000
  H   H42       1.0  0.12195157704951029  0.47253150736290783  0.6743244658446409  1.0000
  H   H43       1.0  0.013415606218439277  0.8942743378376407  0.6680626049395086  1.0000
  H   H44       1.0  0.9865843933355652  0.10572566210959944  0.3319373950831482  1.0000
  H   H45       1.0  0.33887929776249437  0.9760892912977519  0.5760210909215024  1.0000
  H   H46       1.0  0.6611207017915103  0.023910708649488133  0.42397890910115443  1.0000
  H   H47       1.0  0.3503815515799358  0.7663595791530825  0.6113548826479888  1.0000
  H   H48       1.0  0.6496184494437693  0.23364042080019162  0.38864511731269635  1.0000
  H   H49       1.0  0.22882876448728856  0.11270713665057014  0.913061395862351  1.0000
  H   H50       1.0  0.771171235066716  0.88729286329667  0.08693860416030574  1.0000
  H   H51       1.0  0.8550567197544604  0.0643357994749048  0.7310766309747966  1.0000
  H   H52       1.0  0.14494327979954422  0.9356642004723353  0.2689233690478602  1.0000
  H   H53       1.0  0.412460130503823  0.053551393044638816  0.8068305661949621  1.0000
  H   H54       1.0  0.5875398690501815  0.9464486069026014  0.1931694338276947  1.0000
  H   H55       1.0  0.6989720830642688  0.1349149125196484  0.8390298169308876  1.0000
  H   H56       1.0  0.30102791795943623  0.8650850874336258  0.16097018302979754  1.0000
  C   C1        1.0  0.8566784876126453  0.4384122475773499  0.18758059936342195  1.0000
  C   C2        1.0  0.1433215134110598  0.5615877523759243  0.8124194005972633  1.0000
  C   C3        1.0  0.4741620918907389  0.27153040926726457  0.04913001573952596  1.0000
  C   C4        1.0  0.5258379076632658  0.7284695906799756  0.9508699842831309  1.0000
  C   C5        1.0  0.5800993387944816  0.22378071314861228  0.986161468341509  1.0000
  C   C6        1.0  0.41990066222922345  0.7762192868046619  0.013838531619176246  1.0000
  C   C7        1.0  0.2567593372352008  0.31330682197058773  0.05037750539784413  1.0000
  C   C8        1.0  0.7432406623188039  0.6866931779766524  0.9496224946248126  1.0000
  C   C9        1.0  0.9501190506971319  0.402698624638471  0.12046522014261116  1.0000
  C   C10       1.0  0.049880948856872734  0.5973013753087691  0.8795347798800458  1.0000
  C   C11       1.0  0.5214043636447016  0.48983724590231736  0.25291244688283293  1.0000
  C   C12       1.0  0.47859563590930293  0.5101627540449228  0.7470875531398238  1.0000
  C   C13       1.0  0.17065454256925403  0.37138069538494495  0.11540665108141658  1.0000
  C   C14       1.0  0.8293454569847505  0.6286193045622952  0.8845933489412403  1.0000
  C   C15       1.0  0.6353201111446362  0.45895231141517356  0.18934694655541812  1.0000
  C   C16       1.0  0.3646798884093685  0.5410476885320666  0.8106530534672387  1.0000
  C   C17       1.0  0.8249285986885078  0.6323761309916954  0.41780796415310534  1.0000
  C   C18       1.0  0.17507140086549677  0.36762386895554455  0.5821920358695515  1.0000
  C   C19       1.0  0.22253873385884934  0.6942174554453037  0.39932557304799177  1.0000
  C   C20       1.0  0.7774612656951553  0.30578254450193654  0.6006744269746651  1.0000
  C   C21       1.0  0.11576616969729135  0.7417198588807123  0.45548990672846806  1.0000
  C   C22       1.0  0.8842338298567133  0.2582801410665277  0.5445100932941888  1.0000
  C   C23       1.0  0.9115770363893475  0.7116994719629014  0.46497045448185914  1.0000
  C   C24       1.0  0.0884229631646569  0.2883005279843387  0.5350295455407976  1.0000
  C   C25       1.0  0.7779036322632888  0.757652516666327  0.5230792315599124  1.0000
  C   C26       1.0  0.22209636729071566  0.24234748328091316  0.4769207684627444  1.0000
  C   C27       1.0  0.9427258004981485  0.5889395277897788  0.3631136028155475  1.0000
  C   C28       1.0  0.057274200525556644  0.4110604721634954  0.6368863971451377  1.0000
  C   C29       1.0  0.14941051168041808  0.04933444790528985  0.7609101788615515  1.0000
  C   C30       1.0  0.8505894878735866  0.9506655520419502  0.23908982116110533  1.0000
  C   C31       1.0  0.2645328657097097  0.007015875116168399  0.6991169315575589  1.0000
  C   C32       1.0  0.735467133844295  0.9929841248310718  0.300883068465098  1.0000
  C   C33       1.0  0.15172919841244184  0.09996646850568641  0.8716345387629315  1.0000
  C   C34       1.0  0.8482708011415626  0.9000335314415536  0.12836546125972537  1.0000
  C   C35       1.0  0.9454254663860105  0.07188359983027018  0.7696228157770053  1.0000
  C   C36       1.0  0.05457453316799394  0.92811640011697  0.23037718424565146  1.0000
  C   C37       1.0  0.25351946782705015  0.06657475173575687  0.8128818701477689  1.0000
  C   C38       1.0  0.7464805317269545  0.9334252482114834  0.18711812987488788  1.0000
  C   C39       1.0  0.8557810482053582  0.10976500267223994  0.829587591500333  1.0000
  C   C40       1.0  0.14421895134864635  0.8902349972750002  0.17041240852232387  1.0000
  N   N1        1.0  0.7693115061277426  0.8228216388676056  0.6339540902799324  1.0000
  N   N2        1.0  0.23068849489596238  0.17717836108566853  0.3660459096807528  1.0000
  N   N3        1.0  0.8694367649109627  0.7929333622607756  0.5734784158675308  1.0000
  N   N4        1.0  0.130563234643042  0.20706663768646452  0.42652158415512603  1.0000
  N   N5        1.0  0.1377805689556794  0.620657731045355  0.3538629323047226  1.0000
  N   N6        1.0  0.8622194305983252  0.3793422689018851  0.6461370677179343  1.0000
  N   N7        1.0  0.16203325818087774  0.9252416270967182  0.6591108318946074  1.0000
  N   N8        1.0  0.8379667413731268  0.0747583728505219  0.3408891681280495  1.0000
  N   N9        1.0  0.25410125563129315  0.8693482759999257  0.6011029971595565  1.0000
  N   N10       1.0  0.7458987439227115  0.13065172394731447  0.3988970028631002  1.0000
  N   N11       1.0  0.9561679424043249  0.12111311497086748  0.8796042061606749  1.0000
  N   N12       1.0  0.04383205714967969  0.8788868849763726  0.12039579386198186  1.0000
  O   O1        1.0  0.3515425012774228  0.5703771490365867  0.24611153731483507  1.0000
  O   O2        1.0  0.6484574997462823  0.42962285091668767  0.7538884626458501  1.0000
  O   O3        1.0  0.5026977100252823  0.22136961674521774  0.936312650330865  1.0000
  O   O4        1.0  0.4973022909984229  0.7786303832080564  0.06368734962982027  1.0000
  O   O5        1.0  0.5741769562834742  0.439288546748545  0.3062978831003141  1.0000
  O   O6        1.0  0.42582304474023086  0.5607114532047293  0.6937021168603711  1.0000
  O   O7        1.0  0.768039289078461  0.18658615047404878  0.9899232824096486  1.0000
  O   O8        1.0  0.2319607119452441  0.8134138494792255  0.010076717551036762  1.0000
  O   O9        1.0  0.5961324983316345  0.7595546902583044  0.5233985538503787  1.0000
  O   O10       1.0  0.40386750124540866  0.24044531106551603  0.47660144611950134  1.0000
  O   O11       1.0  0.4439718515539384  0.0431090307025457  0.6865364157392245  1.0000
  O   O12       1.0  0.5560281480000661  0.9568909692446945  0.31346358428343224  1.0000
