data_image0
_chemical_formula_structural       H16C56N16S24Br8
_chemical_formula_sum              "H16 C56 N16 S24 Br8"
_cell_length_a       13.713940554839608
_cell_length_b       19.22362233192781
_cell_length_c       6.84408797846835
_cell_angle_alpha    90.0
_cell_angle_beta     90.0
_cell_angle_gamma    90.0

_space_group_name_H-M_alt    "P 1"
_space_group_IT_number       1

loop_
  _space_group_symop_operation_xyz
  'x, y, z'

loop_
  _atom_site_type_symbol
  _atom_site_label
  _atom_site_symmetry_multiplicity
  _atom_site_fract_x
  _atom_site_fract_y
  _atom_site_fract_z
  _atom_site_occupancy
  H   H1        1.0  0.6312125639880494  0.5458784519799526  0.9860646212076173  1.0000
  H   H2        1.0  0.8687874358471979  0.5458784519799526  0.4860646210957214  1.0000
  H   H3        1.0  0.6312125639880494  0.9541215476095256  0.4860646210957214  1.0000
  H   H4        1.0  0.8687874358471979  0.9541215476095256  0.9860646212076173  1.0000
  H   H5        1.0  0.3687874363882388  0.45412154791976395  0.0139353790161745  1.0000
  H   H6        1.0  0.13121256379990526  0.45412154791976395  0.5139353791280704  1.0000
  H   H7        1.0  0.3687874363882388  0.04587845229019098  0.5139353791280704  1.0000
  H   H8        1.0  0.13121256379990526  0.04587845229019098  0.0139353790161745  1.0000
  H   H9        1.0  0.8211659278358093  0.5344277921511644  0.9667323010480494  1.0000
  H   H10       1.0  0.6788340719994379  0.5344277921511644  0.4667323009361535  1.0000
  H   H11       1.0  0.8211659278358093  0.965572207958507  0.4667323009361535  1.0000
  H   H12       1.0  0.6788340719994379  0.965572207958507  0.9667323010480494  1.0000
  H   H13       1.0  0.17883407181129377  0.46557220774855207  0.033267699175742405  1.0000
  H   H14       1.0  0.32116592837685026  0.46557220774855207  0.5332676992876383  1.0000
  H   H15       1.0  0.17883407181129377  0.03442779194120953  0.5332676992876383  1.0000
  H   H16       1.0  0.32116592837685026  0.03442779194120953  0.033267699175742405  1.0000
  C   C1        1.0  0.8096630064567073  0.36247522603619603  0.23267516797123014  1.0000
  C   C2        1.0  0.6903369933785399  0.36247522603619603  0.7326751680831259  1.0000
  C   C3        1.0  0.8096630064567073  0.13752477365356555  0.7326751680831259  1.0000
  C   C4        1.0  0.6903369933785399  0.13752477365356555  0.23267516797123014  1.0000
  C   C5        1.0  0.19033699391958087  0.6375247738635205  0.7673248307914466  1.0000
  C   C6        1.0  0.3096630062685632  0.6375247738635205  0.2673248306795507  1.0000
  C   C7        1.0  0.19033699391958087  0.8624752262461511  0.2673248306795507  1.0000
  C   C8        1.0  0.3096630062685632  0.8624752262461511  0.7673248307914466  1.0000
  C   C9        1.0  0.7110150281757615  0.3392398403067259  0.23252520496619147  1.0000
  C   C10       1.0  0.7889849716594858  0.3392398403067259  0.7325252050780873  1.0000
  C   C11       1.0  0.7110150281757615  0.16076015990322906  0.7325252050780873  1.0000
  C   C12       1.0  0.7889849716594858  0.16076015990322906  0.23252520496619147  1.0000
  C   C13       1.0  0.2889849714713417  0.6607601595929906  0.7674747952576003  1.0000
  C   C14       1.0  0.21101502798761732  0.6607601595929906  0.26747479514570444  1.0000
  C   C15       1.0  0.2889849714713417  0.8392398405166809  0.26747479514570444  1.0000
  C   C16       1.0  0.21101502798761732  0.8392398405166809  0.7674747952576003  1.0000
  C   C17       1.0  0.7040946335874599  0.2671159103803019  0.23216264095360037  1.0000
  C   C18       1.0  0.7959053662477873  0.2671159103803019  0.7321626410654963  1.0000
  C   C19       1.0  0.7040946335874599  0.23288408982965303  0.7321626410654963  1.0000
  C   C20       1.0  0.7959053662477873  0.23288408982965303  0.23216264095360037  1.0000
  C   C21       1.0  0.2959053660596432  0.7328840895194146  0.7678373592701914  1.0000
  C   C22       1.0  0.20409463339931586  0.7328840895194146  0.2678373591582955  1.0000
  C   C23       1.0  0.2959053660596432  0.7671159105902569  0.2678373591582955  1.0000
  C   C24       1.0  0.20409463339931586  0.7671159105902569  0.7678373592701914  1.0000
  C   C25       1.0  0.9304425156996196  0.44403517259194847  0.23629217144603643  1.0000
  C   C26       1.0  0.5695574841356277  0.44403517259194847  0.7362921715579323  1.0000
  C   C27       1.0  0.9304425156996196  0.055964827618006495  0.7362921715579323  1.0000
  C   C28       1.0  0.5695574841356277  0.055964827618006495  0.23629217144603643  1.0000
  C   C29       1.0  0.06955748394748358  0.5559648273077682  0.7637078287777553  1.0000
  C   C30       1.0  0.4304425162406605  0.5559648273077682  0.2637078286658595  1.0000
  C   C31       1.0  0.06955748394748358  0.9440351728019034  0.2637078286658595  1.0000
  C   C32       1.0  0.4304425162406605  0.9440351728019034  0.7637078287777553  1.0000
  C   C33       1.0  0.7461818460623831  0.7137982063458449  0.9773639484244299  1.0000
  C   C34       1.0  0.7538181537728641  0.7137982063458449  0.4773639483125339  1.0000
  C   C35       1.0  0.7461818460623831  0.7862017932436333  0.4773639483125339  1.0000
  C   C36       1.0  0.7538181537728641  0.7862017932436333  0.9773639484244299  1.0000
  C   C37       1.0  0.25381815358472004  0.28620179355387165  0.022636050338246897  1.0000
  C   C38       1.0  0.24618184660342401  0.28620179355387165  0.5226360504501428  1.0000
  C   C39       1.0  0.25381815358472004  0.2137982066560833  0.5226360504501428  1.0000
  C   C40       1.0  0.24618184660342401  0.2137982066560833  0.022636050338246897  1.0000
  C   C41       1.0  0.682621359088244  0.5888300833501053  0.9772630423574458  1.0000
  C   C42       1.0  0.8173786414761882  0.5888300833501053  0.4772630422455499  1.0000
  C   C43       1.0  0.682621359088244  0.911169916759566  0.4772630422455499  1.0000
  C   C44       1.0  0.8173786414761882  0.911169916759566  0.9772630423574458  1.0000
  C   C45       1.0  0.3173786412880441  0.41116991654961116  0.022736956405230938  1.0000
  C   C46       1.0  0.18262135890009998  0.41116991654961116  0.5227369565171268  1.0000
  C   C47       1.0  0.3173786412880441  0.08883008366034376  0.5227369565171268  1.0000
  C   C48       1.0  0.18262135890009998  0.08883008366034376  0.022736956405230938  1.0000
  C   C49       1.0  0.7807084431485068  0.5831037822347754  0.9721797441722893  1.0000
  C   C50       1.0  0.7192915574159253  0.5831037822347754  0.4721797440603933  1.0000
  C   C51       1.0  0.7807084431485068  0.916896217874896  0.4721797440603933  1.0000
  C   C52       1.0  0.7192915574159253  0.916896217874896  0.9721797441722893  1.0000
  C   C53       1.0  0.21929155722778124  0.41689621818513445  0.027820256051502557  1.0000
  C   C54       1.0  0.2807084429603628  0.41689621818513445  0.5278202561633984  1.0000
  C   C55       1.0  0.21929155722778124  0.08310378202482048  0.5278202561633984  1.0000
  C   C56       1.0  0.2807084429603628  0.08310378202482048  0.027820256051502557  1.0000
  N   N1        1.0  0.838121949270359  0.428402985545655  0.23306622226632684  1.0000
  N   N2        1.0  0.6618780505648881  0.428402985545655  0.7330662223782227  1.0000
  N   N3        1.0  0.838121949270359  0.07159701466429998  0.7330662223782227  1.0000
  N   N4        1.0  0.6618780505648881  0.07159701466429998  0.23306622226632684  1.0000
  N   N5        1.0  0.1618780503767441  0.5715970148742548  0.7669337779574649  1.0000
  N   N6        1.0  0.33812194908221493  0.5715970148742548  0.26693377784556904  1.0000
  N   N7        1.0  0.1618780503767441  0.9284029852354166  0.26693377784556904  1.0000
  N   N8        1.0  0.33812194908221493  0.9284029852354166  0.7669337779574649  1.0000
  N   N9        1.0  0.012665049794072947  0.46265851338685143  0.23968913829876276  1.0000
  N   N10       1.0  0.48733495039407115  0.46265851338685143  0.7396891384106586  1.0000
  N   N11       1.0  0.012665049794072947  0.03734148682310347  0.7396891384106586  1.0000
  N   N12       1.0  0.48733495039407115  0.03734148682310347  0.23968913829876276  1.0000
  N   N13       1.0  0.9873349498530302  0.5373414865128651  0.7603108619250291  1.0000
  N   N14       1.0  0.512665049982217  0.5373414865128651  0.2603108618131331  1.0000
  N   N15       1.0  0.9873349498530302  0.9626585135968063  0.2603108618131331  1.0000
  N   N16       1.0  0.512665049982217  0.9626585135968063  0.7603108619250291  1.0000
  S   S1        1.0  0.891911272408389  0.29115634677778784  0.23224660100814787  1.0000
  S   S2        1.0  0.6080887274268583  0.29115634677778784  0.7322466011200438  1.0000
  S   S3        1.0  0.891911272408389  0.2088436534321671  0.7322466011200438  1.0000
  S   S4        1.0  0.6080887274268583  0.2088436534321671  0.23224660100814787  1.0000
  S   S5        1.0  0.10808872723871427  0.7088436536421221  0.7677533977545289  1.0000
  S   S6        1.0  0.3919112722202448  0.7088436536421221  0.26775339764263295  1.0000
  S   S7        1.0  0.10808872723871427  0.7911563464675494  0.26775339764263295  1.0000
  S   S8        1.0  0.3919112722202448  0.7911563464675494  0.7677533977545289  1.0000
  S   S9        1.0  0.6349173962933105  0.6714771325153015  0.9807891221033407  1.0000
  S   S10       1.0  0.8650826035419368  0.6714771325153015  0.48078912199144475  1.0000
  S   S11       1.0  0.6349173962933105  0.82852286759437  0.48078912199144475  1.0000
  S   S12       1.0  0.8650826035419368  0.82852286759437  0.9807891221033407  1.0000
  S   S13       1.0  0.3650826040829777  0.32852286738441505  0.019210878120451098  1.0000
  S   S14       1.0  0.13491739610516634  0.32852286738441505  0.519210878232347  1.0000
  S   S15       1.0  0.3650826040829777  0.1714771328255399  0.519210878232347  1.0000
  S   S16       1.0  0.13491739610516634  0.1714771328255399  0.019210878120451098  1.0000
  S   S17       1.0  0.8468805347053536  0.6593105108473578  0.9719386528822311  1.0000
  S   S18       1.0  0.6531194651298935  0.6593105108473578  0.4719386542314503  1.0000
  S   S19       1.0  0.8468805347053536  0.8406894892623137  0.4719386542314503  1.0000
  S   S20       1.0  0.6531194651298935  0.8406894892623137  0.9719386528822311  1.0000
  S   S21       1.0  0.15311946494174952  0.3406894890523588  0.02806134588044559  1.0000
  S   S22       1.0  0.3468805345172095  0.3406894890523588  0.5280613459923414  1.0000
  S   S23       1.0  0.15311946494174952  0.15931051115759615  0.5280613459923414  1.0000
  S   S24       1.0  0.3468805345172095  0.15931051115759615  0.02806134588044559  1.0000
  Br  Br1       1.0  0.6091852306485158  0.40416844889299486  0.23635550640043262  1.0000
  Br  Br2       1.0  0.8908147691867314  0.40416844889299486  0.7363555065123285  1.0000
  Br  Br3       1.0  0.6091852306485158  0.0958315513169601  0.7363555065123285  1.0000
  Br  Br4       1.0  0.8908147691867314  0.0958315513169601  0.23635550640043262  1.0000
  Br  Br5       1.0  0.3908147697277724  0.5958315510067217  0.7636444938233592  1.0000
  Br  Br6       1.0  0.10918523046037168  0.5958315510067217  0.26364449371146326  1.0000
  Br  Br7       1.0  0.3908147697277724  0.9041684485827564  0.26364449371146326  1.0000
  Br  Br8       1.0  0.10918523046037168  0.9041684485827564  0.7636444938233592  1.0000
