data_image0
_chemical_formula_structural       H32C32N4O6
_chemical_formula_sum              "H32 C32 N4 O6"
_cell_length_a       5.137480318693032
_cell_length_b       9.300015616230695
_cell_length_c       14.42309079211012
_cell_angle_alpha    84.14728810146637
_cell_angle_beta     88.18546340922539
_cell_angle_gamma    88.74678137753669

_space_group_name_H-M_alt    "P 1"
_space_group_IT_number       1

loop_
  _space_group_symop_operation_xyz
  'x, y, z'

loop_
  _atom_site_type_symbol
  _atom_site_label
  _atom_site_symmetry_multiplicity
  _atom_site_fract_x
  _atom_site_fract_y
  _atom_site_fract_z
  _atom_site_occupancy
  H   H1        1.0  0.31452278341604417  0.19790311515684342  0.22807825327442574  1.0000
  H   H2        1.0  0.6854772162705428  0.8020968853508852  0.7719217466842809  1.0000
  H   H3        1.0  0.47956510254722445  0.03952004130999194  0.3622542893416498  1.0000
  H   H4        1.0  0.5204348971845798  0.9604799581166603  0.6377457106895835  1.0000
  H   H5        1.0  0.28330786431120725  0.06244681241055579  0.5224930780250964  1.0000
  H   H6        1.0  0.7166921353753798  0.9375531880971729  0.4775069219336104  1.0000
  H   H7        1.0  0.9387263970630544  0.24547839383903644  0.5434635474313823  1.0000
  H   H8        1.0  0.061273602623532444  0.7545216066686922  0.45653645252732444  1.0000
  H   H9        1.0  0.7847135642317012  0.504104727575994  0.46886549601128596  1.0000
  H   H10       1.0  0.21528643545488568  0.4958952729317346  0.5311345039474208  1.0000
  H   H11       1.0  0.554843554077188  0.3696200698888908  0.4588688557179365  1.0000
  H   H12       1.0  0.4451564456546163  0.6303799295377615  0.5411311443132969  1.0000
  H   H13       1.0  0.49262101405131864  0.45535800132476995  0.29367662571880104  1.0000
  H   H14       1.0  0.507378987627759  0.5446419981067118  0.7063233742903042  1.0000
  H   H15       1.0  0.425977683664801  0.5918340142796588  0.3671322183752798  1.0000
  H   H16       1.0  0.574022316021786  0.4081659862280697  0.6328677815834269  1.0000
  H   H17       1.0  0.2959172092259117  0.5804659026750261  0.13376588605997825  1.0000
  H   H18       1.0  0.7040827904606752  0.4195340978327026  0.8662341138987284  1.0000
  H   H19       1.0  0.29862294339678297  0.8488129516552217  0.13528863453165835  1.0000
  H   H20       1.0  0.701377056289804  0.15118704885250683  0.8647113654270483  1.0000
  H   H21       1.0  0.9634748262824364  0.9707580180652751  0.2294885942688685  1.0000
  H   H22       1.0  0.03652517340415053  0.029241982442453636  0.7705114056898381  1.0000
  H   H23       1.0  0.6313280414557166  0.8247127115035349  0.3242821640551217  1.0000
  H   H24       1.0  0.36867196017814363  0.17528728900902302  0.6757178358814568  1.0000
  H   H25       1.0  0.6385299038662068  0.38072235728797316  0.03928644913756312  1.0000
  H   H26       1.0  0.36147009776765354  0.6192776432245847  0.9607135507990154  1.0000
  H   H27       1.0  0.7645775702613519  0.5371165544976783  0.07935648191265604  1.0000
  H   H28       1.0  0.23542243141772592  0.4628834449338033  0.9206435180964493  1.0000
  H   H29       1.0  0.16489675286959557  0.10379000681445087  0.9948548270165806  1.0000
  H   H30       1.0  0.8351032468169913  0.8962099936932776  0.0051451729421260325  1.0000
  H   H31       1.0  0.6135930636749766  0.14508477616586082  0.11274139726961381  1.0000
  H   H32       1.0  0.3864069360568277  0.8549152232607914  0.8872586027616196  1.0000
  C   C1        1.0  0.8390990787001946  0.339499954035177  0.15728180704726474  1.0000
  C   C2        1.0  0.1609009210316097  0.6605000453914752  0.8427181929839686  1.0000
  C   C3        1.0  0.03554266284099751  0.31052317790501704  0.30928795690984384  1.0000
  C   C4        1.0  0.9644573388380802  0.6894768215264644  0.6907120430992615  1.0000
  C   C5        1.0  0.2332232497632426  0.207367946691511  0.2976765096186298  1.0000
  C   C6        1.0  0.7667767499233443  0.7926320538162176  0.702323490340077  1.0000
  C   C7        1.0  0.3240405396244847  0.11798822426846999  0.3732897093736712  1.0000
  C   C8        1.0  0.6759594601073197  0.8820117751581823  0.6267102906575622  1.0000
  C   C9        1.0  0.21724535133028114  0.13226569930090834  0.46222279637668945  1.0000
  C   C10       1.0  0.7827546483563056  0.8677343012068204  0.5377772035820172  1.0000
  C   C11       1.0  0.02207254481207508  0.23563475249944912  0.4737106448536522  1.0000
  C   C12       1.0  0.9779274548745118  0.7643652480082794  0.5262893551050545  1.0000
  C   C13       1.0  0.9251210139014521  0.3267601088852317  0.3981671298874828  1.0000
  C   C14       1.0  0.07487898583035231  0.6732398905414205  0.6018328701437505  1.0000
  C   C15       1.0  0.7093107209768708  0.43240319171125036  0.4200312598176479  1.0000
  C   C16       1.0  0.290689280702207  0.5675968077202312  0.5799687401914574  1.0000
  C   C17       1.0  0.5841705777615982  0.5260038645434572  0.3392175273850677  1.0000
  C   C18       1.0  0.4158294219249887  0.47399613596427137  0.6607824725736389  1.0000
  C   C19       1.0  0.7751723368165818  0.6210723832922793  0.28305746368432594  1.0000
  C   C20       1.0  0.22482766481727853  0.3789276172202785  0.7169425362522526  1.0000
  C   C21       1.0  0.9632829291715405  0.5548348951200912  0.22808839036893744  1.0000
  C   C22       1.0  0.03671707051504636  0.4451651053876374  0.7719116095897692  1.0000
  C   C23       1.0  0.15042575571831612  0.6353604476794648  0.17476527777388542  1.0000
  C   C24       1.0  0.8495742440134882  0.3646395517471875  0.825234722257348  1.0000
  C   C25       1.0  0.1512053427693271  0.7852584964579177  0.1756690932134955  1.0000
  C   C26       1.0  0.84879465691726  0.21474150404981096  0.8243309067452111  1.0000
  C   C27       1.0  0.9647779377370517  0.85346172688911  0.22965890238668718  1.0000
  C   C28       1.0  0.0352220619495352  0.14653827361861846  0.7703410975720195  1.0000
  C   C29       1.0  0.7787774260223815  0.7714294604789096  0.282972396613562  1.0000
  C   C30       1.0  0.22122257366420536  0.22857054002881907  0.7170276033451448  1.0000
  C   C31       1.0  0.3279416167476704  0.1630443036129252  0.019930143125842088  1.0000
  C   C32       1.0  0.6720583829841339  0.836955695813727  0.9800698569053913  1.0000
  N   N1        1.0  0.9564472555660251  0.4003798548995636  0.22782490864091945  1.0000
  N   N2        1.0  0.04355274611305264  0.5996201445319178  0.7721750913681859  1.0000
  N   N3        1.0  0.7533259100412082  0.4271655530666826  0.08459176842399815  1.0000
  N   N4        1.0  0.2466740896905961  0.5728344463599697  0.9154082316072352  1.0000
  O   O1        1.0  0.8133043549519285  0.20311782886719407  0.16246733729334406  1.0000
  O   O2        1.0  0.18669564473465824  0.7968821716405345  0.8375326626653627  1.0000
  O   O3        1.0  0.4553085560496773  0.08835654428674286  0.08632057901985712  1.0000
  O   O4        1.0  0.5446914436821271  0.9116434551399093  0.9136794210113763  1.0000
  O   O5        1.0  0.37761635145600725  0.2873412432475562  0.9859831834791581  1.0000
  O   O6        1.0  0.6223836482757971  0.7126587561790961  0.014016816552075255  1.0000
