data_image0
_chemical_formula_structural       H44C108N16F8
_chemical_formula_sum              "H44 C108 N16 F8"
_cell_length_a       15.382651135055848
_cell_length_b       8.486707560957342
_cell_length_c       15.488885997923257
_cell_angle_alpha    90.0
_cell_angle_beta     99.71382716236816
_cell_angle_gamma    90.0

_space_group_name_H-M_alt    "P 1"
_space_group_IT_number       1

loop_
  _space_group_symop_operation_xyz
  'x, y, z'

loop_
  _atom_site_type_symbol
  _atom_site_label
  _atom_site_symmetry_multiplicity
  _atom_site_fract_x
  _atom_site_fract_y
  _atom_site_fract_z
  _atom_site_occupancy
  H   H1        1.0  0.5273536724715958  0.7891996998709433  0.4902925553161323  1.0000
  H   H2        1.0  0.4726463272595186  0.7891996998709433  0.009707444667906233  1.0000
  H   H3        1.0  0.02735367216671134  0.2891996999273458  0.4902925552774201  1.0000
  H   H4        1.0  0.9726463275644032  0.2891996999273458  0.009707444706618454  1.0000
  H   H5        1.0  0.4726463276996872  0.21080030001625177  0.50970744477014  1.0000
  H   H6        1.0  0.5273536722523529  0.21080030001625177  0.9902925553205562  1.0000
  H   H7        1.0  0.9726463273451602  0.7108002999598493  0.5097074447110422  1.0000
  H   H8        1.0  0.02735367260687994  0.7108002999598493  0.9902925553796538  1.0000
  H   H9        1.0  0.5000010002131632  0.9174734517565566  0.7500020000944121  1.0000
  H   H10       1.0  9.999082786223902e-07  0.41747345181295903  0.7500020000556998  1.0000
  H   H11       1.0  0.4999989999581199  0.08252654813063853  0.2499979999918601  1.0000
  H   H12       1.0  0.9999990002630045  0.5825265480742361  0.2499980000305723  1.0000
  H   H13       1.0  0.36773649774111006  0.9243017570308653  0.8152757474997759  1.0000
  H   H14       1.0  0.6322635022109301  0.9243017570308653  0.6847242525909202  1.0000
  H   H15       1.0  0.8677364980459946  0.4243017570872677  0.8152757475384881  1.0000
  H   H16       1.0  0.13226350190604552  0.4243017570872677  0.684724252552208  1.0000
  H   H17       1.0  0.6322635017707615  0.0756982428563299  0.1847242524886865  1.0000
  H   H18       1.0  0.36773649796035307  0.0756982428563299  0.315275747495352  1.0000
  H   H19       1.0  0.1322635021252885  0.5756982427999274  0.18472425254778405  1.0000
  H   H20       1.0  0.8677364982652375  0.5756982427999274  0.3152757475340642  1.0000
  H   H21       1.0  0.2453202880286792  0.7839473980000666  0.868425988416293  1.0000
  H   H22       1.0  0.7546797119233608  0.7839473980000666  0.6315740116744031  1.0000
  H   H23       1.0  0.7453202883335638  0.28394739805646907  0.8684259884550052  1.0000
  H   H24       1.0  0.25467971161847636  0.28394739805646907  0.6315740116356908  1.0000
  H   H25       1.0  0.754679712142604  0.2160526018871285  0.13157401166997917  1.0000
  H   H26       1.0  0.24532028824792218  0.2160526018871285  0.36842598841186913  1.0000
  H   H27       1.0  0.25467971183771937  0.716052601830726  0.13157401163126695  1.0000
  H   H28       1.0  0.7453202878933951  0.716052601830726  0.3684259883527716  1.0000
  H   H29       1.0  0.23992183984889112  0.4917462278539065  0.8661631724139185  1.0000
  H   H30       1.0  0.760078160103149  0.4917462278539065  0.6338368276767776  1.0000
  H   H31       1.0  0.7399218401537757  0.991746227797504  0.8661631724526306  1.0000
  H   H32       1.0  0.26007815979826443  0.991746227797504  0.6338368276380655  1.0000
  H   H33       1.0  0.7600781596629804  0.5082537720332886  0.13383682757454402  1.0000
  H   H34       1.0  0.2399218400681341  0.5082537720332886  0.3661631724094945  1.0000
  H   H35       1.0  0.26007816001750744  0.008253772089691082  0.13383682763364155  1.0000
  H   H36       1.0  0.7399218403730187  0.008253772089691082  0.36616317244820673  1.0000
  H   H37       1.0  0.3552624844553701  0.33598285902034186  0.8138960011758227  1.0000
  H   H38       1.0  0.64473751549667  0.33598285902034186  0.6861039989148732  1.0000
  H   H39       1.0  0.8552624847602547  0.8359828589639394  0.813896001214535  1.0000
  H   H40       1.0  0.14473751519178546  0.8359828589639394  0.686103998876161  1.0000
  H   H41       1.0  0.6447375157159129  0.6640171408668533  0.18610399891044938  1.0000
  H   H42       1.0  0.3552624846746131  0.6640171408668533  0.31389600117139893  1.0000
  H   H43       1.0  0.14473751541102844  0.16401714092325567  0.18610399887173718  1.0000
  H   H44       1.0  0.8552624843200861  0.16401714092325567  0.3138960011123013  1.0000
  C   C1        1.0  0.427926683333313  0.4410265563077546  0.5299687860669124  1.0000
  C   C2        1.0  0.5720733166187272  0.4410265563077546  0.9700312140237835  1.0000
  C   C3        1.0  0.927926682978786  0.9410265562513521  0.5299687860078149  1.0000
  C   C4        1.0  0.07207331697325418  0.9410265562513521  0.9700312140828811  1.0000
  C   C5        1.0  0.5720733168379701  0.5589734435794406  0.4700312140193596  1.0000
  C   C6        1.0  0.427926683552556  0.5589734435794406  0.029968786062488643  1.0000
  C   C7        1.0  0.07207331653308557  0.05897344363584294  0.4700312139806474  1.0000
  C   C8        1.0  0.9279266831980288  0.05897344363584294  0.029968786003391076  1.0000
  C   C9        1.0  0.43873225544445354  0.6080409243437979  0.528553785446157  1.0000
  C   C10       1.0  0.5612677445075865  0.6080409243437979  0.9714462146445388  1.0000
  C   C11       1.0  0.9387322550899264  0.10804092440020024  0.5285537853870595  1.0000
  C   C12       1.0  0.06126774486211363  0.10804092440020024  0.9714462147036366  1.0000
  C   C13       1.0  0.5612677447268296  0.39195907554339726  0.47144621464011505  1.0000
  C   C14       1.0  0.438732255004285  0.39195907554339726  0.02855378534392344  1.0000
  C   C15       1.0  0.061267745081356614  0.8919590754869949  0.4714462146992126  1.0000
  C   C16       1.0  0.9387322553091695  0.8919590754869949  0.028553785382635626  1.0000
  C   C17       1.0  0.5143876984010975  0.6636203650882827  0.4959298793873094  1.0000
  C   C18       1.0  0.4856123013300169  0.6636203650882827  0.004070120596729074  1.0000
  C   C19       1.0  0.014387698096213057  0.16362036514468506  0.4959298793485972  1.0000
  C   C20       1.0  0.9856123016349014  0.16362036514468506  0.004070120635441297  1.0000
  C   C21       1.0  0.4856123017701855  0.3363796347989125  0.5040701206989627  1.0000
  C   C22       1.0  0.5143876981818546  0.3363796347989125  0.9959298793917333  1.0000
  C   C23       1.0  0.9856123014156585  0.8363796347425101  0.5040701206398652  1.0000
  C   C24       1.0  0.014387698536381655  0.8363796347425101  0.9959298794508309  1.0000
  C   C25       1.0  0.38028727523551203  0.7147059523888888  0.5591898737098404  1.0000
  C   C26       1.0  0.6197127247165282  0.7147059523888888  0.9408101263808556  1.0000
  C   C27       1.0  0.880287274880985  0.21470595244529114  0.5591898736507429  1.0000
  C   C28       1.0  0.11971272507105517  0.21470595244529114  0.9408101264399531  1.0000
  C   C29       1.0  0.6197127249357711  0.2852940474983064  0.44081012637643174  1.0000
  C   C30       1.0  0.38028727479534336  0.2852940474983064  0.059189873607606795  1.0000
  C   C31       1.0  0.11971272463088656  0.785294047441904  0.44081012633771954  1.0000
  C   C32       1.0  0.880287275100228  0.785294047441904  0.05918987364631901  1.0000
  C   C33       1.0  0.30259351948361235  0.6728562836629481  0.5907531136475098  1.0000
  C   C34       1.0  0.6974064804684279  0.6728562836629481  0.9092468864431862  1.0000
  C   C35       1.0  0.8025935197884969  0.17285628371935055  0.5907531136862221  1.0000
  C   C36       1.0  0.19740648016354323  0.17285628371935055  0.909246886404474  1.0000
  C   C37       1.0  0.6974064800282592  0.327143716224247  0.4092468863409525  1.0000
  C   C38       1.0  0.3025935197028553  0.327143716224247  0.09075311364308597  1.0000
  C   C39       1.0  0.19740648038278621  0.8271437161678445  0.40924688640005014  1.0000
  C   C40       1.0  0.8025935200077399  0.8271437161678445  0.09075311368179817  1.0000
  C   C41       1.0  0.39710792920272414  0.8783551567504599  0.5600926591417947  1.0000
  C   C42       1.0  0.602892070749316  0.8783551567504599  0.9399073409489013  1.0000
  C   C43       1.0  0.8971079295076086  0.37835515680686244  0.560092659180507  1.0000
  C   C44       1.0  0.10289207044443145  0.37835515680686244  0.9399073409101891  1.0000
  C   C45       1.0  0.602892070968559  0.12164484313673513  0.4399073409444774  1.0000
  C   C46       1.0  0.39710792942196715  0.12164484313673513  0.06009265913737088  1.0000
  C   C47       1.0  0.10289207066367444  0.6216448430803327  0.4399073409057652  1.0000
  C   C48       1.0  0.8971079290674401  0.6216448430803327  0.060092659078273325  1.0000
  C   C49       1.0  0.5000000002992452  0.78873779636221  0.7499999997704171  1.0000
  C   C50       1.0  0.9999999999943606  0.2887377952402992  0.749999999731705  1.0000
  C   C51       1.0  0.49999999985907656  0.21126220470329837  0.2499999996681835  1.0000
  C   C52       1.0  2.1360365042723038e-10  0.7112622046468959  0.24999999972728107  1.0000
  C   C53       1.0  0.4316802027570918  0.709470054995131  0.782204025768096  1.0000
  C   C54       1.0  0.5683197971949483  0.709470054995131  0.7177959743226001  1.0000
  C   C55       1.0  0.9316802024025648  0.20947005505153352  0.7822040257089985  1.0000
  C   C56       1.0  0.06831979754947538  0.20947005505153352  0.7177959743816976  1.0000
  C   C57       1.0  0.5683197974141914  0.2905299448920641  0.2177959743181762  1.0000
  C   C58       1.0  0.43168020297633475  0.2905299448920641  0.28220402576367204  1.0000
  C   C59       1.0  0.0683197971093068  0.7905299448356616  0.21779597427946398  1.0000
  C   C60       1.0  0.9316802026218077  0.7905299448356616  0.2822040257045745  1.0000
  C   C61       1.0  0.3645620809891409  0.795768106947493  0.8142375155966457  1.0000
  C   C62       1.0  0.6354379189628993  0.795768106947493  0.6857624844940505  1.0000
  C   C63       1.0  0.8645620806346138  0.2957681070038955  0.814237515537548  1.0000
  C   C64       1.0  0.13543791931742633  0.2957681070038955  0.6857624845531479  1.0000
  C   C65       1.0  0.6354379191821423  0.20423189293970206  0.18576248448962657  1.0000
  C   C66       1.0  0.3645620805489722  0.20423189293970206  0.314237515494412  1.0000
  C   C67       1.0  0.13543791887725773  0.7042318928832997  0.18576248445091434  1.0000
  C   C68       1.0  0.8645620808538568  0.7042318928832997  0.3142375155331242  1.0000
  C   C69       1.0  0.29643229900562945  0.7177791689234123  0.8437585288286109  1.0000
  C   C70       1.0  0.7035677009464106  0.7177791689234123  0.6562414712620851  1.0000
  C   C71       1.0  0.796432299310514  0.21777916897981467  0.843758528867323  1.0000
  C   C72       1.0  0.2035677006415261  0.21777916897981467  0.6562414712233728  1.0000
  C   C73       1.0  0.7035677011656536  0.28222083096378286  0.1562414712576612  1.0000
  C   C74       1.0  0.2964322992248725  0.28222083096378286  0.3437585288241871  1.0000
  C   C75       1.0  0.20356770086076909  0.7822208309073805  0.156241471218949  1.0000
  C   C76       1.0  0.7964322988703454  0.7822208309073805  0.34375852876508955  1.0000
  C   C77       1.0  0.29387970203434743  0.5522595018546036  0.842761802626671  1.0000
  C   C78       1.0  0.7061202979047313  0.5522595018546036  0.6572381968163535  1.0000
  C   C79       1.0  0.793879702339232  0.05225950073269283  0.8427618026653833  1.0000
  C   C80       1.0  0.20612029759984682  0.05225950073269283  0.6572381967776413  1.0000
  C   C81       1.0  0.7061202981369357  0.4477404992109047  0.1572381974596011  1.0000
  C   C82       1.0  0.2938797022535904  0.4477404992109047  0.34276180262224715  1.0000
  C   C83       1.0  0.20612029783205113  0.9477404991545023  0.1572381974208889  1.0000
  C   C84       1.0  0.7938797018990634  0.9477404991545023  0.3427618025631496  1.0000
  C   C85       1.0  0.3591363720038207  0.4643939197494177  0.8128629661103259  1.0000
  C   C86       1.0  0.6408636279482195  0.4643939197494177  0.6871370339803701  1.0000
  C   C87       1.0  0.8591363723087052  0.9643939196930151  0.8128629661490382  1.0000
  C   C88       1.0  0.14086362830274649  0.9643939196930151  0.6871370340394676  1.0000
  C   C89       1.0  0.6408636281674625  0.5356060801377776  0.1871370339759462  1.0000
  C   C90       1.0  0.35913637222306366  0.5356060801377776  0.31286296610590214  1.0000
  C   C91       1.0  0.1408636278625779  0.0356060801941799  0.18713703393723397  1.0000
  C   C92       1.0  0.8591363718685366  0.0356060801941799  0.3128629660468046  1.0000
  C   C93       1.0  0.42884469069130327  0.5408695924809507  0.7825620784158674  1.0000
  C   C94       1.0  0.5711553092607368  0.5408695924809507  0.7174379216748287  1.0000
  C   C95       1.0  0.9288446909961878  0.04086959253735306  0.7825620784545796  1.0000
  C   C96       1.0  0.0711553089558523  0.04086959253735306  0.7174379216361164  1.0000
  C   C97       1.0  0.5711553088205682  0.4591304074062445  0.217437921572595  1.0000
  C   C98       1.0  0.4288446909105463  0.4591304074062445  0.2825620784114436  1.0000
  C   C99       1.0  0.07115530917509529  0.959130407349842  0.2174379216316925  1.0000
  C   C100      1.0  0.9288446912154308  0.959130407349842  0.28256207845015574  1.0000
  C   C101      1.0  0.5000000002992452  0.45428952892599606  0.7499999997704171  1.0000
  C   C102      1.0  0.9999999999943606  0.9542895288695936  0.749999999731705  1.0000
  C   C103      1.0  0.49999999985907656  0.5457104709611991  0.2499999996681835  1.0000
  C   C104      1.0  2.1360365042723038e-10  0.045710471017601485  0.24999999972728107  1.0000
  C   C105      1.0  0.5000000002992452  0.29702086019747914  0.7499999997704171  1.0000
  C   C106      1.0  0.9999999999943606  0.7970208601410766  0.749999999731705  1.0000
  C   C107      1.0  0.49999999985907656  0.7029791396897159  0.2499999996681835  1.0000
  C   C108      1.0  2.1360365042723038e-10  0.20297913974611842  0.24999999972728107  1.0000
  N   N1        1.0  0.23687297259446094  0.6493279543826265  0.6174544780032921  1.0000
  N   N2        1.0  0.7631270273575791  0.6493279543826265  0.8825455220874038  1.0000
  N   N3        1.0  0.7368729722399339  0.14932795443902888  0.6174544779441945  1.0000
  N   N4        1.0  0.2631270277121063  0.14932795443902888  0.8825455221465014  1.0000
  N   N5        1.0  0.7631270275768222  0.35067204550456865  0.38254552208298004  1.0000
  N   N6        1.0  0.23687297215429232  0.35067204550456865  0.1174544779010585  1.0000
  N   N7        1.0  0.26312702793134923  0.8506720454481662  0.3825455221420776  1.0000
  N   N8        1.0  0.7368729724591768  0.8506720454481662  0.1174544779397707  1.0000
  N   N9        1.0  0.4101787937496704  0.014295402443007522  0.5628079292060034  1.0000
  N   N10       1.0  0.5898212062023697  0.014295402443007522  0.9371920708846927  1.0000
  N   N11       1.0  0.9101787933951433  0.5142954023866051  0.5628079291469058  1.0000
  N   N12       1.0  0.0898212065568967  0.5142954023866051  0.9371920709437901  1.0000
  N   N13       1.0  0.5898212064216126  0.9857045974441876  0.4371920708802688  1.0000
  N   N14       1.0  0.41017879330950185  0.9857045974441876  0.06280792910376973  1.0000
  N   N15       1.0  0.0898212067761397  0.48570459750059003  0.43719207093936635  1.0000
  N   N16       1.0  0.9101787936143865  0.48570459750059003  0.06280792914248194  1.0000
  F   F1        1.0  0.35614080846150326  0.38444185410719606  0.5601869710042408  1.0000
  F   F2        1.0  0.6438591914905368  0.38444185410719606  0.9398130290864551  1.0000
  F   F3        1.0  0.8561408087663878  0.8844418540507936  0.560186971042953  1.0000
  F   F4        1.0  0.14385919118565235  0.8844418540507936  0.9398130290477431  1.0000
  F   F5        1.0  0.6438591917097799  0.6155581457799991  0.4398130290820314  1.0000
  F   F6        1.0  0.3561408086807462  0.6155581457799991  0.060186970999816874  1.0000
  F   F7        1.0  0.14385919140489534  0.11555814583640152  0.43981302904331926  1.0000
  F   F8        1.0  0.8561408083262192  0.11555814583640152  0.06018697094071933  1.0000
