data_image0
_chemical_formula_structural       H38C66N16F8
_chemical_formula_sum              "H38 C66 N16 F8"
_cell_length_a       13.342454249447664
_cell_length_b       14.898247502503429
_cell_length_c       7.188705511692915
_cell_angle_alpha    96.15260670465199
_cell_angle_beta     97.8984364626003
_cell_angle_gamma    100.29362236595983

_space_group_name_H-M_alt    "P 1"
_space_group_IT_number       1

loop_
  _space_group_symop_operation_xyz
  'x, y, z'

loop_
  _atom_site_type_symbol
  _atom_site_label
  _atom_site_symmetry_multiplicity
  _atom_site_fract_x
  _atom_site_fract_y
  _atom_site_fract_z
  _atom_site_occupancy
  H   H1        1.0  0.22833670251798363  0.3586743412178233  0.3090625834145689  1.0000
  H   H2        1.0  0.7716632972282504  0.6413256586260105  0.6909374165275688  1.0000
  H   H3        1.0  0.204252001843614  0.4579291583848372  0.44783198432081023  1.0000
  H   H4        1.0  0.7957479980524779  0.5420708421475046  0.552168015805261  1.0000
  H   H5        1.0  0.18134657931486756  0.7112418108292873  0.2959941787255923  1.0000
  H   H6        1.0  0.8186534204313665  0.2887581890145467  0.7040058212165454  1.0000
  H   H7        1.0  0.10904629542427824  0.8530325363831881  0.3380752891402391  1.0000
  H   H8        1.0  0.8909537050789008  0.14696746346215514  0.6619247109791372  1.0000
  H   H9        1.0  0.8070373811095168  0.6871594872093738  0.3124479169424853  1.0000
  H   H10       1.0  0.19296261863671715  0.3128405126344601  0.6875520829996523  1.0000
  H   H11       1.0  0.8796488398133228  0.5454463388243342  0.26643790892340136  1.0000
  H   H12       1.0  0.12035115993291125  0.45455366101949973  0.7335620910187363  1.0000
  H   H13       1.0  0.9653678985531188  0.9275204525231003  0.3461820578647257  1.0000
  H   H14       1.0  0.034632101193115127  0.07247954732073356  0.653817942077412  1.0000
  H   H15       1.0  0.8415950133668415  0.8615603368485915  0.23797113450126287  1.0000
  H   H16       1.0  0.15840498637939252  0.1384396629952425  0.7620288654408749  1.0000
  H   H17       1.0  0.8789450145284198  0.8729171202180652  0.4861346842738712  1.0000
  H   H18       1.0  0.1210549852178142  0.12708287962576872  0.5138653156682665  1.0000
  H   H19       1.0  0.8739948507340158  0.3321446338645235  0.19341512518454881  1.0000
  H   H20       1.0  0.12600514901221818  0.6678553659793104  0.8065848747575889  1.0000
  H   H21       1.0  0.7784208630269752  0.17170831404810774  0.12571178290920648  1.0000
  H   H22       1.0  0.22157913747620378  0.8282916857972354  0.8742882172101699  1.0000
  H   H23       1.0  0.873068497778141  0.0417015411180183  0.09753537454945717  1.0000
  H   H24       1.0  0.12693150272503817  0.958298458727325  0.9024646255699192  1.0000
  H   H25       1.0  0.0656543116287967  0.07610866554327214  0.13126236285041062  1.0000
  H   H26       1.0  0.9343456881174373  0.9238913343005617  0.8687376370917271  1.0000
  H   H27       1.0  0.1617567375690813  0.23423852203103857  0.2038419670887908  1.0000
  H   H28       1.0  0.8382432621771527  0.7657614778127954  0.796158032853347  1.0000
  H   H29       1.0  0.31867424270398653  0.33634312953869516  0.13087618357537892  1.0000
  H   H30       1.0  0.6813257571921053  0.6636568709936466  0.8691238165506924  1.0000
  H   H31       1.0  0.440276285241324  0.32117053042001475  0.9099976761897425  1.0000
  H   H32       1.0  0.559723715261855  0.6788294694253285  0.09000232392963382  1.0000
  H   H33       1.0  0.4781157967489288  0.4386963476894214  0.6943678165345438  1.0000
  H   H34       1.0  0.5218842029973052  0.5613036521544125  0.30563218340759396  1.0000
  H   H35       1.0  0.3916037430347212  0.5744814387690652  0.7058588094402591  1.0000
  H   H36       1.0  0.6083962568613707  0.4255185617632766  0.2941411906858121  1.0000
  H   H37       1.0  0.27209528078980155  0.5933110530316075  0.9324817099681808  1.0000
  H   H38       1.0  0.7279047189564324  0.40668894681222645  0.0675182899739569  1.0000
  C   C1        1.0  0.4979197736739323  0.13881831538297057  0.638683731746979  1.0000
  C   C2        1.0  0.5020802268292467  0.8611816844623728  0.3613162683723974  1.0000
  C   C3        1.0  0.4124558749910002  0.0660417509394987  0.634096376881277  1.0000
  C   C4        1.0  0.5875441256620365  0.9339582495943524  0.36590362342203286  1.0000
  C   C5        1.0  0.42194934877321844  0.9842506024319793  0.7008984520770637  1.0000
  C   C6        1.0  0.5780506509730156  0.01574939741185463  0.29910154786507404  1.0000
  C   C7        1.0  0.5179242056317217  0.9645608747013019  0.7800799579682397  1.0000
  C   C8        1.0  0.48207579411451235  0.03543912514253194  0.21992004197389792  1.0000
  C   C9        1.0  0.6033908499121823  0.03763455447143084  0.7846311958967404  1.0000
  C   C10       1.0  0.3966091498340517  0.9623654453724031  0.21536880404539732  1.0000
  C   C11       1.0  0.5940186053203718  0.11932877511710992  0.7178542981124327  1.0000
  C   C12       1.0  0.4059813951828073  0.8806712247282332  0.28214570200694356  1.0000
  C   C13       1.0  0.48860167366198864  0.22264146997640938  0.5663706704516964  1.0000
  C   C14       1.0  0.5113983260842453  0.7773585298674245  0.43362932949044125  1.0000
  C   C15       1.0  0.3937837280372257  0.24446467207157324  0.49228711051343144  1.0000
  C   C16       1.0  0.6062162724659534  0.7555353277737701  0.5077128896059451  1.0000
  C   C17       1.0  0.572531378218615  0.29626591778513556  0.5720899940178968  1.0000
  C   C18       1.0  0.427468621527619  0.7037340820586984  0.4279100059242408  1.0000
  C   C19       1.0  0.5279993641236596  0.8797383231209562  0.8480623013892878  1.0000
  C   C20       1.0  0.4720006363795194  0.120261676724387  0.15193769873008847  1.0000
  C   C21       1.0  0.442950838695898  0.8099111824911158  0.8595309490049414  1.0000
  C   C22       1.0  0.557049161807281  0.1900888173542274  0.14046905111443495  1.0000
  C   C23       1.0  0.6237685729199441  0.8601235671528457  0.92389175942832  1.0000
  C   C24       1.0  0.37623142682628974  0.13987643269098823  0.07610824051381772  1.0000
  C   C25       1.0  0.18790581603488785  0.41594669468321654  0.3072007084457618  1.0000
  C   C26       1.0  0.812094183861204  0.5840533058491252  0.6927992916803094  1.0000
  C   C27       1.0  0.07973729450510493  0.5376890665042935  0.24297083891710156  1.0000
  C   C28       1.0  0.9202627061479318  0.46231093402955764  0.7570291613862085  1.0000
  C   C29       1.0  0.03520863696216173  0.6195570983184412  0.2764336958198728  1.0000
  C   C30       1.0  0.9647913629339301  0.3804429022139006  0.7235663043061984  1.0000
  C   C31       1.0  0.09935434694179661  0.7066281713927635  0.2984083892300296  1.0000
  C   C32       1.0  0.9006456528044374  0.2933718284510705  0.7015916107121082  1.0000
  C   C33       1.0  0.058207685711916965  0.7857744228900888  0.3231193248268421  1.0000
  C   C34       1.0  0.9417923141841748  0.21422557764225295  0.6768806752992292  1.0000
  C   C35       1.0  0.9527153415476398  0.7804752899671835  0.3274092366424567  1.0000
  C   C36       1.0  0.047284658198594245  0.21952470987665032  0.6725907632996811  1.0000
  C   C37       1.0  0.889310872357122  0.6926177478396961  0.3089003174503504  1.0000
  C   C38       1.0  0.11068912814605694  0.30738225200564706  0.6910996826690258  1.0000
  C   C39       1.0  0.9296927320900857  0.6131048411666097  0.2840985153398196  1.0000
  C   C40       1.0  0.07030726856295119  0.3868951593672415  0.7159014849634903  1.0000
  C   C41       1.0  0.9076532842838021  0.8654848042331463  0.3502087167582397  1.0000
  C   C42       1.0  0.09234671546243195  0.13451519561068762  0.6497912831838979  1.0000
  C   C43       1.0  0.023377145603198233  0.2939962945535636  0.2052275877855332  1.0000
  C   C44       1.0  0.9766228548999808  0.7060037052917795  0.7947724123338431  1.0000
  C   C45       1.0  0.9151256167037658  0.275679895689594  0.17996526223269735  1.0000
  C   C46       1.0  0.08487438319232592  0.7243201048427477  0.820034737893374  1.0000
  C   C47       1.0  0.8621098857073726  0.1850676246718065  0.14208983401687564  1.0000
  C   C48       1.0  0.13789011479580646  0.8149323751735368  0.8579101661025007  1.0000
  C   C49       1.0  0.9155576817933385  0.11262630724581954  0.1255194873155764  1.0000
  C   C50       1.0  0.08444231810275338  0.8873736932865223  0.8744805128104949  1.0000
  C   C51       1.0  0.023051569208974575  0.13178408610576686  0.1455105248437024  1.0000
  C   C52       1.0  0.9769484305372594  0.8682159137380672  0.8544894750984353  1.0000
  C   C53       1.0  0.07801663208080217  0.22220359677856766  0.18653963201292548  1.0000
  C   C54       1.0  0.9219833685722347  0.7777964037552834  0.8134603682903845  1.0000
  C   C55       1.0  0.2859667517432072  0.46580963571351813  0.044029427058588894  1.0000
  C   C56       1.0  0.7140332487599719  0.5341903641318251  0.9559705730607875  1.0000
  C   C57       1.0  0.33420194722943447  0.3894675449390048  0.040315775723842213  1.0000
  C   C58       1.0  0.6657980525167996  0.6105324549048291  0.9596842242182956  1.0000
  C   C59       1.0  0.40276272445471956  0.3803134523533969  0.913052740734377  1.0000
  C   C60       1.0  0.5972372760484594  0.6196865474919463  0.08694725938499928  1.0000
  C   C61       1.0  0.4233225474239737  0.4458345432856888  0.7915138766906052  1.0000
  C   C62       1.0  0.5766774530792054  0.5541654565596545  0.2084861234287712  1.0000
  C   C63       1.0  0.37559796419214614  0.5221578620024648  0.7981875221823469  1.0000
  C   C64       1.0  0.6244020363110329  0.4778421378428785  0.20181247793702958  1.0000
  C   C65       1.0  0.3069905030124763  0.5327678785163383  0.9237435513536599  1.0000
  C   C66       1.0  0.6930094967337577  0.4672321213274956  0.07625644858847765  1.0000
  N   N1        1.0  0.3196971747527101  0.26986249627819786  0.42948396779201864  1.0000
  N   N2        1.0  0.6803028249935239  0.730137503565636  0.570516032150119  1.0000
  N   N3        1.0  0.6360050020386724  0.36152947551379466  0.5702995225890952  1.0000
  N   N4        1.0  0.3639949984645066  0.6384705243315485  0.4297004775302811  1.0000
  N   N5        1.0  0.376246273919421  0.7498144040542167  0.8760262755787287  1.0000
  N   N6        1.0  0.623753725826813  0.2501855957896172  0.12397372436340899  1.0000
  N   N7        1.0  0.7002857519631465  0.8382988423128993  0.9866527636293758  1.0000
  N   N8        1.0  0.29971424868989033  0.16170115822095182  0.01334723667393406  1.0000
  N   N9        1.0  0.2148048632108698  0.4771452820148262  0.16871108910262056  1.0000
  N   N10       1.0  0.7851951365353642  0.5228547178290078  0.8312889108395171  1.0000
  N   N11       1.0  0.1658898726246753  0.545276459604827  0.1616294839066446  1.0000
  N   N12       1.0  0.8341101271215587  0.4547235402390071  0.8383705160354932  1.0000
  N   N13       1.0  0.024670496248250684  0.45347687016660576  0.2532184194448707  1.0000
  N   N14       1.0  0.9753295042549283  0.5465231296787374  0.7467815806745055  1.0000
  N   N15       1.0  0.07614234501763724  0.38663855889434073  0.25446979691110694  1.0000
  N   N16       1.0  0.9238576547285968  0.6133614409494932  0.7455302030310308  1.0000
  F   F1        1.0  0.3172708195295606  0.0755037991482218  0.5571426611121091  1.0000
  F   F2        1.0  0.6827291802166734  0.9244962006956121  0.44285733883002865  1.0000
  F   F3        1.0  0.3347635422297473  0.9196315760238152  0.6850325565648808  1.0000
  F   F4        1.0  0.6652364575164866  0.08036842382001884  0.3149674433772568  1.0000
  F   F5        1.0  0.6991897683289502  0.027346187393930323  0.8564452447836847  1.0000
  F   F6        1.0  0.3008102321742288  0.9726538124514129  0.1435547553356917  1.0000
  F   F7        1.0  0.6809268144337141  0.18280627600756513  0.7271978887559233  1.0000
  F   F8        1.0  0.3190731854623778  0.8171937245247766  0.272802111370148  1.0000
