data_image0
_chemical_formula_structural       H44C56N8O12
_chemical_formula_sum              "H44 C56 N8 O12"
_cell_length_a       6.3412653089366255
_cell_length_b       7.552764314463369
_cell_length_c       25.207722703018355
_cell_angle_alpha    82.74268716448414
_cell_angle_beta     88.02840207728914
_cell_angle_gamma    91.10597871882914

_space_group_name_H-M_alt    "P 1"
_space_group_IT_number       1

loop_
  _space_group_symop_operation_xyz
  'x, y, z'

loop_
  _atom_site_type_symbol
  _atom_site_label
  _atom_site_symmetry_multiplicity
  _atom_site_fract_x
  _atom_site_fract_y
  _atom_site_fract_z
  _atom_site_occupancy
  H   H1        1.0  0.4118882124296353  0.708327413063575  0.9562534946529979  1.0000
  H   H2        1.0  0.5881117875136255  0.2916725880248922  0.04374650514702839  1.0000
  H   H3        1.0  0.2368574891646646  0.6228124094506673  0.04643295798803253  1.0000
  H   H4        1.0  0.7631425107590426  0.3771875903027981  0.953567041862155  1.0000
  H   H5        1.0  0.4171072965728805  0.6823181484034313  0.12758947910530444  1.0000
  H   H6        1.0  0.5828927033508268  0.3176818513500341  0.872410520744883  1.0000
  H   H7        1.0  0.09072163236670908  0.6636416342459461  0.20260107476487577  1.0000
  H   H8        1.0  0.9092783675569982  0.336358365507519  0.7973989250853116  1.0000
  H   H9        1.0  0.3405721825896736  0.49276332891297653  0.21775075935814234  1.0000
  H   H10       1.0  0.6594278173340334  0.5072366708404888  0.7822492404920453  1.0000
  H   H11       1.0  0.6667840367127048  0.3326287919024765  0.23973169303684794  1.0000
  H   H12       1.0  0.3332159632110025  0.6673712078509889  0.7602683068133396  1.0000
  H   H13       1.0  0.7849704544002382  0.2852411573110673  0.33282848032018375  1.0000
  H   H14       1.0  0.21502954552732859  0.7147588424406262  0.6671715199267395  1.0000
  H   H15       1.0  0.24378140893828806  0.5642790542297113  0.38450533586669305  1.0000
  H   H16       1.0  0.7562185909854191  0.4357209455237541  0.6154946639834944  1.0000
  H   H17       1.0  0.5683752192607896  0.3997074468883691  0.4056340983531626  1.0000
  H   H18       1.0  0.43162478066291754  0.6002925528650963  0.5943659014970248  1.0000
  H   H19       1.0  0.5671798407113436  0.9128058989269137  0.45677032176994653  1.0000
  H   H20       1.0  0.4328201592123636  0.08719410082655164  0.5432296780802409  1.0000
  H   H21       1.0  0.34787875717529065  0.026715516760512505  0.43077530588039353  1.0000
  H   H22       1.0  0.6521212427484167  0.9732844829929529  0.5692246939697939  1.0000
  H   H23       1.0  0.44771362337199805  0.9918338068910459  0.1501199466572891  1.0000
  H   H24       1.0  0.5522863765517092  0.008166192862419328  0.8498800531928984  1.0000
  H   H25       1.0  0.9545026171042074  0.9037699676309325  0.031226076639113205  1.0000
  H   H26       1.0  0.04549738282335922  0.09623003212076092  0.9687739236078102  1.0000
  H   H27       1.0  0.7659577705553855  0.8536909296930835  0.9480216865373188  1.0000
  H   H28       1.0  0.2340422293683216  0.14630907006038182  0.05197831331286867  1.0000
  H   H29       1.0  0.2067605811020223  0.1047365222126502  0.21719882241233165  1.0000
  H   H30       1.0  0.7932394188216849  0.895263477540815  0.7828011774378558  1.0000
  H   H31       1.0  0.9488855872953811  0.46164924620860526  0.10506426185521452  1.0000
  H   H32       1.0  0.051114412632185566  0.5383507535430884  0.8949357383917089  1.0000
  H   H33       1.0  0.7843326690202884  0.3484168675851397  0.15885115170252986  1.0000
  H   H34       1.0  0.21566733090727813  0.6515831321665538  0.8411488485443935  1.0000
  H   H35       1.0  0.8636257903465522  0.23638753452028058  0.10443997122593086  1.0000
  H   H36       1.0  0.13637420958101434  0.7636124652314129  0.8955600290209925  1.0000
  H   H37       1.0  0.8722272584653296  0.7677222248527539  0.42523416401368536  1.0000
  H   H38       1.0  0.12777274145837766  0.2322777749007115  0.5747658358365021  1.0000
  H   H39       1.0  0.05047249713408533  0.7917358222988499  0.5787263826273109  1.0000
  H   H40       1.0  0.9495275027896218  0.20826417745461534  0.42127361722287654  1.0000
  H   H41       1.0  0.24653449306182618  0.7655399018382474  0.5268826074740058  1.0000
  H   H42       1.0  0.753465506861881  0.23446009791521785  0.47311739237618167  1.0000
  H   H43       1.0  0.07982041848361782  0.5823741342099269  0.5535117706863392  1.0000
  H   H44       1.0  0.9201795814400894  0.4176258655435384  0.4464882291638482  1.0000
  C   C1        1.0  0.7128381710359801  0.8348167689077903  0.27950920678510816  1.0000
  C   C2        1.0  0.28716182889158653  0.16518323084390318  0.7204907934618152  1.0000
  C   C3        1.0  0.800114395957557  0.782848709983497  0.32941436245868944  1.0000
  C   C4        1.0  0.19988560396615018  0.21715128976996842  0.670585637391498  1.0000
  C   C5        1.0  0.4896323555676077  0.7363671040101135  0.9922680733429516  1.0000
  C   C6        1.0  0.5103676459343292  0.2636328957586645  0.0077319264920204306  1.0000
  C   C7        1.0  0.3916420190659699  0.6888897714784346  0.04260738510509778  1.0000
  C   C8        1.0  0.6083579808577373  0.31111022827503076  0.9573926147450896  1.0000
  C   C9        1.0  0.4933576639248815  0.7230221262910561  0.08852611399830003  1.0000
  C   C10       1.0  0.5066423359988257  0.27697787346240904  0.9114738858518874  1.0000
  C   C11       1.0  0.6962517738537235  0.8025104411153231  0.08419656450621332  1.0000
  C   C12       1.0  0.3037482276520727  0.19748955865168305  0.9158034357254946  1.0000
  C   C13       1.0  0.8213729013458968  0.8312029581383485  0.13112766081754484  1.0000
  C   C14       1.0  0.17862709857781042  0.1687970416151168  0.8688723390326426  1.0000
  C   C15       1.0  0.7152593824434001  0.8501539735597657  0.18350362545523083  1.0000
  C   C16       1.0  0.28474061748416646  0.1498460261919276  0.8164963747916927  1.0000
  C   C17       1.0  0.8147656596910255  0.7935626200473976  0.232072066943785  1.0000
  C   C18       1.0  0.1852343402365411  0.20643737970429585  0.7679279333031385  1.0000
  C   C19       1.0  0.0036034494713977857  0.6947738263699963  0.23783009146097286  1.0000
  C   C20       1.0  0.9963965504561688  0.3052261733816971  0.7621699087859505  1.0000
  C   C21       1.0  0.07958969123829794  0.6424464106248132  0.2872578838878285  1.0000
  C   C22       1.0  0.9204103086892687  0.3575535891268802  0.7127421163590948  1.0000
  C   C23       1.0  0.26928924444110425  0.5421847214283677  0.29963411602474166  1.0000
  C   C24       1.0  0.730710755482603  0.4578152783250975  0.7003658838254457  1.0000
  C   C25       1.0  0.3901150162083359  0.4755673187037323  0.25896319933230577  1.0000
  C   C26       1.0  0.609884983734925  0.5244326823847351  0.7410368004677207  1.0000
  C   C27       1.0  0.5740950937210528  0.3847151308792589  0.2711993874322181  1.0000
  C   C28       1.0  0.4259049062065138  0.6152848688724346  0.7288006128147052  1.0000
  C   C29       1.0  0.640284132438611  0.3570670394383288  0.32389208509026063  1.0000
  C   C30       1.0  0.3597158674850962  0.6429329603151365  0.6761079147599269  1.0000
  C   C31       1.0  0.3353575149575491  0.5128951781493095  0.3527265505096484  1.0000
  C   C32       1.0  0.6646424849661582  0.48710482160415575  0.6472734493405391  1.0000
  C   C33       1.0  0.519167509778386  0.42079952322075037  0.36442398102861945  1.0000
  C   C34       1.0  0.48083249014532126  0.579200476532715  0.6355760188215681  1.0000
  C   C35       1.0  0.5414816399086048  0.9122294030715609  0.3767841212067565  1.0000
  C   C36       1.0  0.4585183600385154  0.08777059801513475  0.6232158789900057  1.0000
  C   C37       1.0  0.4332267071502848  0.9652084098257553  0.3288791678929687  1.0000
  C   C38       1.0  0.5667732927734224  0.03479158992771001  0.6711208319572186  1.0000
  C   C39       1.0  0.5214622915602406  0.9296170446711091  0.2789381449317114  1.0000
  C   C40       1.0  0.47853770836732606  0.0703829550805844  0.721061855315212  1.0000
  C   C41       1.0  0.5252466668170025  0.9420599945257746  0.18683111401568467  1.0000
  C   C42       1.0  0.47475333311056406  0.057940005225918974  0.8131688862312386  1.0000
  C   C43       1.0  0.23996910017850484  0.051983258327797134  0.3324402888797753  1.0000
  C   C44       1.0  0.7600308997490617  0.9480167414238965  0.6675597113671481  1.0000
  C   C45       1.0  0.794991628097813  0.8467978438724743  0.033272314330388006  1.0000
  C   C46       1.0  0.2050083718493072  0.15320215721422134  0.9667276858663744  1.0000
  C   C47       1.0  0.6914243638274091  0.8164847398946127  0.9875316247615016  1.0000
  C   C48       1.0  0.3085756361001574  0.18351525985708075  0.012468375485421781  1.0000
  C   C49       1.0  0.11132045265745819  0.2669587422959797  0.1572671249145762  1.0000
  C   C50       1.0  0.8886795472701084  0.7330412574557138  0.8427328753323473  1.0000
  C   C51       1.0  0.9150240493691607  0.33474396716644755  0.13025796348811255  1.0000
  C   C52       1.0  0.08497595055454642  0.6652560325870177  0.8697420363620749  1.0000
  C   C53       1.0  0.9305875338742431  0.7769799695691382  0.500918506961687  1.0000
  C   C54       1.0  0.06941246607287713  0.22302003151755728  0.4990814932350753  1.0000
  C   C55       1.0  0.0869852253578536  0.7280630050723941  0.5429968644093743  1.0000
  C   C56       1.0  0.9130147745854071  0.2719369960160733  0.457003135390652  1.0000
  N   N1        1.0  0.7235189042190523  0.8195942134051561  0.37587155090787117  1.0000
  N   N2        1.0  0.27648109570465496  0.1804057863483092  0.6241284489423162  1.0000
  N   N3        1.0  0.42952033834127246  0.983067105830535  0.23178301767823076  1.0000
  N   N4        1.0  0.5704796615824348  0.016932893922930292  0.7682169821719567  1.0000
  N   N5        1.0  0.07761603895260206  0.11996435496212926  0.33773517055081037  1.0000
  N   N6        1.0  0.9223839609906587  0.8800356461263381  0.662264829249216  1.0000
  N   N7        1.0  0.4730405541398443  0.9477389823330779  0.4248960542243124  1.0000
  N   N8        1.0  0.5269594457838629  0.05226101742038743  0.5751039456258751  1.0000
  O   O1        1.0  0.017590230060632064  0.8404989512595421  0.12677367722483307  1.0000
  O   O2        1.0  0.982409769863075  0.15950104849392333  0.8732263226253544  1.0000
  O   O3        1.0  0.9783158733576238  0.6872407306284192  0.33262949482268817  1.0000
  O   O4        1.0  0.02168412656608336  0.3127592691250462  0.6673705050274994  1.0000
  O   O5        1.0  0.291071618880677  0.3021693993612876  0.13822768447990344  1.0000
  O   O6        1.0  0.7089283826446728  0.6978306017407205  0.8617723157016434  1.0000
  O   O7        1.0  0.07022487671402533  0.16204252262976404  0.2034822056084465  1.0000
  O   O8        1.0  0.9297751232292355  0.8379574784587033  0.7965177941915799  1.0000
  O   O9        1.0  0.9847251793001788  0.7295642769260391  0.4535636184759306  1.0000
  O   O10       1.0  0.015274820627387723  0.2704357228256544  0.5464363817709927  1.0000
  O   O11       1.0  0.7630940366824195  0.8533826158177507  0.5095426190302512  1.0000
  O   O12       1.0  0.23690596324514704  0.14661738393394283  0.49045738121667215  1.0000
