data_image0
_chemical_formula_structural       H64C56N12O8Cl4
_chemical_formula_sum              "H64 C56 N12 O8 Cl4"
_cell_length_a       7.894705634517827
_cell_length_b       13.639586543963565
_cell_length_c       13.147223378287423
_cell_angle_alpha    90.0
_cell_angle_beta     102.08150614288854
_cell_angle_gamma    90.0

_space_group_name_H-M_alt    "P 1"
_space_group_IT_number       1

loop_
  _space_group_symop_operation_xyz
  'x, y, z'

loop_
  _atom_site_type_symbol
  _atom_site_label
  _atom_site_symmetry_multiplicity
  _atom_site_fract_x
  _atom_site_fract_y
  _atom_site_fract_z
  _atom_site_occupancy
  H   H1        1.0  0.8336761872899955  0.6103794549171666  0.653702751082287  1.0000
  H   H2        1.0  0.16632381195572632  0.11037945432930285  0.8462972489809258  1.0000
  H   H3        1.0  0.1663238129701246  0.3896205455254008  0.3462972487540748  1.0000
  H   H4        1.0  0.833676187301549  0.8896205453801045  0.15370275162957628  1.0000
  H   H5        1.0  0.9316227013492927  0.7231044847444421  0.7030823218226275  1.0000
  H   H6        1.0  0.06837729916437492  0.22310448488973852  0.7969176782442817  1.0000
  H   H7        1.0  0.06837729891082743  0.2768955149649651  0.2969176780137343  1.0000
  H   H8        1.0  0.9316227010957451  0.7768955155528289  0.20308232159208003  1.0000
  H   H9        1.0  0.802480297091223  0.5945532398552786  0.215612058457394  1.0000
  H   H10       1.0  0.1975197029153495  0.09455324000057498  0.2843879411484203  1.0000
  H   H11       1.0  0.19751970316889694  0.40544675985412865  0.7843879413789677  1.0000
  H   H12       1.0  0.8024802973447704  0.9054467604419923  0.7156120586879413  1.0000
  H   H13       1.0  0.6893188840424881  0.5375613884164953  0.3053324420622476  1.0000
  H   H14       1.0  0.3106811162291856  0.03756138856179162  0.19466755832140348  1.0000
  H   H15       1.0  0.3106811164827331  0.4624386120260721  0.6946675585519508  1.0000
  H   H16       1.0  0.6893188840309343  0.9624386118807756  0.8053324415149582  1.0000
  H   H17       1.0  0.9048976857881406  0.5034264974138019  0.3039998755229808  1.0000
  H   H18       1.0  0.0951023142184319  0.003426497559098214  0.19600012408283354  1.0000
  H   H19       1.0  0.09510231447197935  0.49657350302876546  0.6960001243133809  1.0000
  H   H20       1.0  0.9048976847737424  0.9965735028834691  0.8039998757498319  1.0000
  H   H21       1.0  0.16845328589499448  0.856824304192136  0.3160170309644088  1.0000
  H   H22       1.0  0.8315467128436324  0.35682430433743223  0.18398296863770924  1.0000
  H   H23       1.0  0.8315467130971799  0.14317569551727144  0.6839829688682567  1.0000
  H   H24       1.0  0.16845328614854196  0.6431756953719752  0.8160170311949563  1.0000
  H   H25       1.0  0.21299242450720016  0.9051813242435907  0.4451408568992041  1.0000
  H   H26       1.0  0.7870075754993725  0.405181323655727  0.05485914270661027  1.0000
  H   H27       1.0  0.7870075744849742  0.09481867619897663  0.5548591429334614  1.0000
  H   H28       1.0  0.2129924247607477  0.5948186760536802  0.9451408571297516  1.0000
  H   H29       1.0  0.017506302657433446  0.9357543228206299  0.358192160924054  1.0000
  H   H30       1.0  0.9824936976142401  0.4357543229659262  0.14180783945959702  1.0000
  H   H31       1.0  0.9824936976026867  0.06424567688877746  0.6418078389123079  1.0000
  H   H32       1.0  0.01750630291098093  0.5642456767434811  0.8581921611546015  1.0000
  H   H33       1.0  0.7745594428251659  0.5311281604211179  0.4905864256024298  1.0000
  H   H34       1.0  0.22544055718140665  0.031128160566414174  0.00941357400338451  1.0000
  H   H35       1.0  0.22544055743495417  0.46887183928828946  0.509413574233932  1.0000
  H   H36       1.0  0.7745594430787134  0.9688718391429931  0.9905864258329773  1.0000
  H   H37       1.0  0.5972127941828758  0.35209949616291164  0.7509811702942754  1.0000
  H   H38       1.0  0.4027872063307918  0.8520994960176154  0.7490188297726338  1.0000
  H   H39       1.0  0.4027872063423454  0.6479005042796557  0.24901883031992306  1.0000
  H   H40       1.0  0.5972127939293282  0.14790050442495206  0.250981170063728  1.0000
  H   H41       1.0  0.451840929112728  0.19040276856114485  0.7569184044508395  1.0000
  H   H42       1.0  0.5481590714009394  0.6904027684158485  0.7430815956160697  1.0000
  H   H43       1.0  0.5481590714124931  0.8095972311482624  0.24308159616335895  1.0000
  H   H44       1.0  0.4518409288591805  0.3095972312935588  0.25691840422029205  1.0000
  H   H45       1.0  0.42471072665890863  0.1544716992123532  0.42879987554812743  1.0000
  H   H46       1.0  0.5752892733476639  0.6544716990670568  0.07120012405768691  1.0000
  H   H47       1.0  0.5752892736012114  0.8455283012302142  0.5712001242882344  1.0000
  H   H48       1.0  0.42471072691245615  0.3455283013755105  0.928799875778675  1.0000
  H   H49       1.0  0.5715191883592563  0.315016935165207  0.4242574442018788  1.0000
  H   H50       1.0  0.4284808119124174  0.8150169350199106  0.07574255618177227  1.0000
  H   H51       1.0  0.42848081190086373  0.6849830645442003  0.5757425556344831  1.0000
  H   H52       1.0  0.5715191883477027  0.18498306468949666  0.9242574436545895  1.0000
  H   H53       1.0  0.2279514422744768  0.05565626549992202  0.5386064280569112  1.0000
  H   H54       1.0  0.7720485579740897  0.5556562653546256  0.9613935712321613  1.0000
  H   H55       1.0  0.7720485579856432  0.9443437342094853  0.4613935717794507  1.0000
  H   H56       1.0  0.22795144228603037  0.44434373435478164  0.0386064286042004  1.0000
  H   H57       1.0  0.3200442840432852  0.04625205521931291  0.6741982202814014  1.0000
  H   H58       1.0  0.6799557152024366  0.5462520550740165  0.8258017797818116  1.0000
  H   H59       1.0  0.679955716481936  0.9537479452232545  0.32580178033279705  1.0000
  H   H60       1.0  0.3200442837897377  0.45374794463539075  0.17419822005085397  1.0000
  H   H61       1.0  0.43473018821552417  0.003296133636829109  0.5807676037218026  1.0000
  H   H62       1.0  0.5652698122981432  0.5032961334915328  0.9192323963451066  1.0000
  H   H63       1.0  0.5652698120445959  0.9967038660725782  0.4192323961145592  1.0000
  H   H64       1.0  0.43473018822707776  0.49670386621787455  0.08076760426909188  1.0000
  C   C1        1.0  0.882357984092812  0.6427996297204638  0.37331340829042264  1.0000
  C   C2        1.0  0.11764201591376053  0.14279962913260014  0.1266865913153917  1.0000
  C   C3        1.0  0.11764201616730804  0.3572003707221035  0.6266865915459392  1.0000
  C   C4        1.0  0.8823579843463595  0.8572003705768071  0.8733134085209701  1.0000
  C   C5        1.0  0.9227509949327797  0.6919815281480877  0.5467230572312156  1.0000
  C   C6        1.0  0.07724900431294209  0.19198152829338394  0.9532769428319973  1.0000
  C   C7        1.0  0.07724900405939464  0.3080184715613197  0.4532769426014499  1.0000
  C   C8        1.0  0.9227509959471779  0.8080184721491833  0.046723057004364466  1.0000
  C   C9        1.0  0.007604361465707472  0.7768614763978658  0.5191081047993381  1.0000
  C   C10       1.0  0.9923956377800144  0.2768614765431623  0.9808918952638749  1.0000
  C   C11       1.0  0.9923956375264668  0.22313852404470144  0.48089189503332735  1.0000
  C   C12       1.0  0.007604362480105731  0.7231385238994051  0.019108104572486937  1.0000
  C   C13       1.0  0.024766307783699308  0.7892990550189773  0.41715410164831984  1.0000
  C   C14       1.0  0.9752336922228733  0.2892990551642737  0.08284589795749445  1.0000
  C   C15       1.0  0.975233691208475  0.21070094542359002  0.5828458981843456  1.0000
  C   C16       1.0  0.024766308037246797  0.7107009452782936  0.9171541018788674  1.0000
  C   C17       1.0  0.8143860435024982  0.5656389117905075  0.2943452568953317  1.0000
  C   C18       1.0  0.18561395676917541  0.06563891120264383  0.20565474348831936  1.0000
  C   C19       1.0  0.18561395675762177  0.43436108865205986  0.70565474294103  1.0000
  C   C20       1.0  0.8143860434909447  0.9343610885067634  0.7943452563480423  1.0000
  C   C21       1.0  0.11185116820703789  0.8765149926990292  0.3824054722591234  1.0000
  C   C22       1.0  0.8881488320646358  0.3765149928443255  0.1175945281245277  1.0000
  C   C23       1.0  0.8881488320530823  0.12348500701037814  0.6175945275772384  1.0000
  C   C24       1.0  0.11185116846058533  0.6234850068650818  0.8824054724896707  1.0000
  C   C25       1.0  0.5939161883857507  0.3434669053127065  0.58745192223545  1.0000
  C   C26       1.0  0.40608381212791694  0.8434669059005702  0.9125480778314594  1.0000
  C   C27       1.0  0.4060838118743694  0.6565330943967007  0.4125480776009119  1.0000
  C   C28       1.0  0.5939161881322031  0.15653309454199707  0.08745192200490247  1.0000
  C   C29       1.0  0.5593012737998659  0.30808813642960126  0.6809070184004412  1.0000
  C   C30       1.0  0.4406987267138015  0.808088136284305  0.8190929816664679  1.0000
  C   C31       1.0  0.44069872646025404  0.6919118632798061  0.31909298143592046  1.0000
  C   C32       1.0  0.5593012735463185  0.19191186342510239  0.18090701816989385  1.0000
  C   C33       1.0  0.47868454111023945  0.21763643131204358  0.6838751297384172  1.0000
  C   C34       1.0  0.5213154581354823  0.7176364311667471  0.8161248703247957  1.0000
  C   C35       1.0  0.5213154591498806  0.7823635683973638  0.31612487009794454  1.0000
  C   C36       1.0  0.4786845411217931  0.2823635685426601  0.18387513028570654  1.0000
  C   C37       1.0  0.4304297931268098  0.1603212247637938  0.5938609309129783  1.0000
  C   C38       1.0  0.5695702073868576  0.6603212246184974  0.9061390691539309  1.0000
  C   C39       1.0  0.5695702071333103  0.8396787756787736  0.4061390689233835  1.0000
  C   C40       1.0  0.43042979313836344  0.3396787758240699  0.09386093146026753  1.0000
  C   C41       1.0  0.4636120163591217  0.19712290554657022  0.5001624647585773  1.0000
  C   C42       1.0  0.5363879841545458  0.6971229054012739  0.999837535308332  1.0000
  C   C43       1.0  0.5363879839009984  0.802877094162837  0.49983753507778445  1.0000
  C   C44       1.0  0.4636120161055742  0.3028770943081334  0.00016246452802984047  1.0000
  C   C45       1.0  0.5447697288407974  0.28708912967255557  0.4967729310577285  1.0000
  C   C46       1.0  0.4552302711657751  0.7870891302604193  0.0032270685480857847  1.0000
  C   C47       1.0  0.45523027015137685  0.7129108700368517  0.503227068774937  1.0000
  C   C48       1.0  0.544769729094345  0.21291087018214805  0.9967729312882759  1.0000
  C   C49       1.0  0.6827709369019762  0.43927021473034505  0.5849434821591306  1.0000
  C   C50       1.0  0.3172290636116913  0.9392702145850488  0.9150565179077786  1.0000
  C   C51       1.0  0.31722906335814377  0.5607297857122223  0.41505651767723106  1.0000
  C   C52       1.0  0.6827709369135299  0.060729785857518634  0.08494348270641996  1.0000
  C   C53       1.0  0.34840731663380436  0.061677838788472245  0.5977057889741396  1.0000
  C   C54       1.0  0.6515926838798631  0.5616778386431759  0.9022942110927695  1.0000
  C   C55       1.0  0.6515926836263156  0.938322160920935  0.4022942108622221  1.0000
  C   C56       1.0  0.3484073163802569  0.4383221610662314  0.09770578874359222  1.0000
  N   N1        1.0  0.9586449241370362  0.7219005831491063  0.3431948750885065  1.0000
  N   N2        1.0  0.04135507486669171  0.2219005832944026  0.1568051252914483  1.0000
  N   N3        1.0  0.04135507485513808  0.278099416560301  0.656805124744159  1.0000
  N   N4        1.0  0.9586449243905838  0.7780994164150047  0.843194875319054  1.0000
  N   N5        1.0  0.8642357357909297  0.6253488881431585  0.4708612752674088  1.0000
  N   N6        1.0  0.1357642642156429  0.12534888828845478  0.029138724338405517  1.0000
  N   N7        1.0  0.13576426446919035  0.3746511122994089  0.529138724568953  1.0000
  N   N8        1.0  0.8642357347765314  0.8746511121541125  0.97086127549426  1.0000
  N   N9        1.0  0.8975605196309331  0.6741818844992523  0.6422499143338113  1.0000
  N   N10       1.0  0.1024394796147886  0.17418188464454867  0.8577500857294015  1.0000
  N   N11       1.0  0.10243947936124116  0.32581811521015497  0.3577500854988542  1.0000
  N   N12       1.0  0.8975605193773858  0.8258181157980187  0.14224991410326396  1.0000
  O   O1        1.0  0.7098540687301714  0.46227639229947937  0.4920681398347304  1.0000
  O   O2        1.0  0.2901459312764011  0.9622763921541829  0.007931859771083887  1.0000
  O   O3        1.0  0.2901459315299486  0.537723607409928  0.5079318600016314  1.0000
  O   O4        1.0  0.7098540689837189  0.03772360755522433  0.9920681400652778  1.0000
  O   O5        1.0  0.7278757833375016  0.4916061691743544  0.6637506494382627  1.0000
  O   O6        1.0  0.272124217176166  0.9916061690290581  0.8362493506286466  1.0000
  O   O7        1.0  0.27212421692261846  0.5083938312682129  0.33624935039809917  1.0000
  O   O8        1.0  0.7278757833490551  0.008393830680349238  0.16375064998555186  1.0000
  Cl  Cl1       1.0  0.0856832767214748  0.8617472723322308  0.6145672285926082  1.0000
  Cl  Cl2       1.0  0.9143167237921926  0.3617472724775271  0.8854327714743011  1.0000
  Cl  Cl3       1.0  0.9143167235386453  0.13825272737717653  0.38543277124375364  1.0000
  Cl  Cl4       1.0  0.0856832764679273  0.6382527272318801  0.11456722836206068  1.0000
