data_image0
_chemical_formula_structural       H84C42N4P4I2
_chemical_formula_sum              "H84 C42 N4 P4 I2"
_cell_length_a       8.395776444552
_cell_length_b       9.824145888336295
_cell_length_c       15.13248377404513
_cell_angle_alpha    83.50460381769506
_cell_angle_beta     78.73887374347632
_cell_angle_gamma    83.8284153997853

_space_group_name_H-M_alt    "P 1"
_space_group_IT_number       1

loop_
  _space_group_symop_operation_xyz
  'x, y, z'

loop_
  _atom_site_type_symbol
  _atom_site_label
  _atom_site_symmetry_multiplicity
  _atom_site_fract_x
  _atom_site_fract_y
  _atom_site_fract_z
  _atom_site_occupancy
  H   H1        1.0  0.4876477351432404  0.40554957405043773  0.6513376747366126  1.0000
  H   H2        1.0  0.51235226385232  0.5944504255748714  0.3486623252481518  1.0000
  H   H3        1.0  0.27815202846334963  0.42198427364246993  0.6990248938113613  1.0000
  H   H4        1.0  0.7218479717216727  0.5780157259900781  0.3009751061752951  1.0000
  H   H5        1.0  0.4020831604537029  0.2686560237615789  0.7265285995835848  1.0000
  H   H6        1.0  0.5979168397313194  0.7313439758709691  0.2734714004030717  1.0000
  H   H7        1.0  0.4134794124194868  0.4434527042716073  0.48221238520797044  1.0000
  H   H8        1.0  0.5865205877655354  0.5565472953609407  0.5177876147786861  1.0000
  H   H9        1.0  0.24964341161136228  0.3569610137827734  0.4657500638435675  1.0000
  H   H10       1.0  0.7503565885736598  0.6430389858497746  0.534249936143089  1.0000
  H   H11       1.0  0.2173061996056793  0.4795175550154201  0.5474303513615315  1.0000
  H   H12       1.0  0.782693800579343  0.5204824446171279  0.452569648625125  1.0000
  H   H13       1.0  0.6050640574014862  0.2619046479251521  0.5350610435630117  1.0000
  H   H14       1.0  0.39493594278353616  0.7380953517073959  0.4649389564236448  1.0000
  H   H15       1.0  0.5324039104946222  0.11116636556908363  0.5994196745835739  1.0000
  H   H16       1.0  0.46759608850093826  0.8888336340562254  0.4005803254011905  1.0000
  H   H17       1.0  0.4945611277550307  0.15666007490358735  0.4870493586578215  1.0000
  H   H18       1.0  0.5054388722909091  0.8433399257520835  0.5129506413334305  1.0000
  H   H19       1.0  0.7836109635419901  0.38315883522511207  0.626978928405819  1.0000
  H   H20       1.0  0.2163890366430322  0.616841164407436  0.3730210715808374  1.0000
  H   H21       1.0  0.9761917577618524  0.4481291469583503  0.5922973493137  1.0000
  H   H22       1.0  0.023808242423169836  0.5518708526741977  0.4077026506729564  1.0000
  H   H23       1.0  0.9199791586892131  0.31771250970716897  0.5337771767157027  1.0000
  H   H24       1.0  0.08002084135672678  0.6822874909485019  0.46622282327554937  1.0000
  H   H25       1.0  0.8491026605004057  0.3307679304817458  0.7903548782988904  1.0000
  H   H26       1.0  0.15089733954553403  0.669232070173925  0.20964512169236177  1.0000
  H   H27       1.0  0.037223116163326395  0.23714207596064718  0.8039542197881624  1.0000
  H   H28       1.0  0.9627768838826135  0.7628579246950237  0.1960457802030897  1.0000
  H   H29       1.0  0.033635771063831976  0.4043966768630396  0.7439271605875927  1.0000
  H   H30       1.0  0.9663642289821077  0.5956033237926313  0.2560728394036594  1.0000
  H   H31       1.0  0.746417618027224  0.16211141166436133  0.7236925273786687  1.0000
  H   H32       1.0  0.253582382018716  0.8378885889913096  0.27630747261258337  1.0000
  H   H33       1.0  0.8507703005796855  0.08441128557067461  0.6257930220084739  1.0000
  H   H34       1.0  0.14922969960533683  0.9155887140618734  0.3742069779781827  1.0000
  H   H35       1.0  0.9158283597003561  0.03847860742998988  0.730869546241193  1.0000
  H   H36       1.0  0.0841716403455837  0.961521393225681  0.269130453750059  1.0000
  H   H37       1.0  0.11011620642412201  0.15520561258454163  0.4771255692488056  1.0000
  H   H38       1.0  0.8898837933934289  0.8447943879669871  0.5228744314192587  1.0000
  H   H39       1.0  0.2910471824305134  0.04723808777498687  0.4916991719042188  1.0000
  H   H40       1.0  0.7089528176154264  0.9527619128806839  0.5083008280870333  1.0000
  H   H41       1.0  0.09852370132438118  0.995419024682206  0.5482247757379473  1.0000
  H   H42       1.0  0.9014762988606411  0.004580974950341894  0.45177522424870914  1.0000
  H   H43       1.0  0.40946127707876234  0.5778258307396686  0.8831871089467123  1.0000
  H   H44       1.0  0.5905387231062598  0.4221741688928795  0.11681289103994416  1.0000
  H   H45       1.0  0.6134110981304566  0.5949939855368496  0.8923081687275679  1.0000
  H   H46       1.0  0.3865889019154832  0.4050060151188213  0.10769183126368426  1.0000
  H   H47       1.0  0.5108195773052108  0.7923933206981497  0.9895374705927834  1.0000
  H   H48       1.0  0.48918042155126723  0.2076066799502822  0.01046252939657666  1.0000
  H   H49       1.0  0.4190663801861155  0.641224598636358  0.03690189358100697  1.0000
  H   H50       1.0  0.5809336188094449  0.3587754009889511  0.9630981064037576  1.0000
  H   H51       1.0  0.20384539753628017  0.840142102592197  0.0322168346429065  1.0000
  H   H52       1.0  0.7961546026487422  0.159857897040351  0.96778316534375  1.0000
  H   H53       1.0  0.18073757737172616  0.7107837314564295  0.9651599342274367  1.0000
  H   H54       1.0  0.8192624228132961  0.2892162681761186  0.034840065759219725  1.0000
  H   H55       1.0  0.44961945369194917  0.6231926875854902  0.7150714792280626  1.0000
  H   H56       1.0  0.550380546493073  0.37680731204705786  0.2849285207585939  1.0000
  H   H57       1.0  0.6002088284732466  0.7352184290317803  0.6614754726860895  1.0000
  H   H58       1.0  0.39979117171177564  0.26478157060076773  0.33852452730056687  1.0000
  H   H59       1.0  0.6543010204166616  0.593172312518141  0.7353206576571178  1.0000
  H   H60       1.0  0.3456989797683608  0.4068276871144069  0.2646793423295386  1.0000
  H   H61       1.0  0.6429741692132384  0.8978370510166442  0.8657389822850874  1.0000
  H   H62       1.0  0.3570258309717839  0.10216294861590387  0.13426101770156915  1.0000
  H   H63       1.0  0.772076494306403  0.7801768869866479  0.7962600532991326  1.0000
  H   H64       1.0  0.22792350573953682  0.219823113669023  0.20373994669211942  1.0000
  H   H65       1.0  0.6617851720850132  0.9220496656133171  0.7464792971357194  1.0000
  H   H66       1.0  0.3382148279609268  0.07795033504235369  0.2535207028555327  1.0000
  H   H67       1.0  0.04099763470806653  0.845463682539792  0.8472561218808689  1.0000
  H   H68       1.0  0.9590023653378734  0.15453631811587903  0.15274387811038329  1.0000
  H   H69       1.0  0.002713957237936281  0.9270687356917603  0.9491945061616037  1.0000
  H   H70       1.0  0.9972860428080036  0.07293126496391056  0.05080549382964845  1.0000
  H   H71       1.0  0.05152379163763345  0.025783295925918874  0.8432107806127523  1.0000
  H   H72       1.0  0.9484762073579271  0.9742167036993902  0.15678921937201207  1.0000
  H   H73       1.0  0.4428492839352676  0.016894347381406775  0.9250733015765911  1.0000
  H   H74       1.0  0.5571507162497545  0.9831056522511413  0.07492669841006547  1.0000
  H   H75       1.0  0.32031714349379475  0.11019541232456484  0.8510547915762222  1.0000
  H   H76       1.0  0.6796828566912275  0.8898045873079832  0.14894520841043424  1.0000
  H   H77       1.0  0.23830914505625142  0.07572391259774927  0.9681528819241252  1.0000
  H   H78       1.0  0.7616908549896882  0.9242760880579215  0.03184711806712691  1.0000
  H   H79       1.0  0.9667931297812787  0.5924905623325053  0.8439308648785955  1.0000
  H   H80       1.0  0.03320687026466103  0.4075094383231655  0.1560691351126567  1.0000
  H   H81       1.0  0.18569136800590708  0.4086526079783891  0.8667012198874947  1.0000
  H   H82       1.0  0.8143086320400327  0.5913473926772818  0.13329878010375734  1.0000
  H   H83       1.0  0.779867513416405  0.6836225926719486  0.977118458889844  1.0000
  H   H84       1.0  0.22013248662953486  0.31637740798372216  0.02288154110140801  1.0000
  C   C1        1.0  0.3471598095406517  0.28499561833473924  0.5898578795838099  1.0000
  C   C2        1.0  0.6528401906443706  0.7150043812978087  0.4101421204028467  1.0000
  C   C3        1.0  0.3788266271003662  0.3483526212037244  0.6723892283762798  1.0000
  C   C4        1.0  0.6211733729455736  0.6516473794519465  0.3276107716149722  1.0000
  C   C5        1.0  0.3021864793643992  0.3971833574016442  0.5174484386992568  1.0000
  C   C6        1.0  0.6978135206815407  0.6028166432540267  0.4825515612919952  1.0000
  C   C7        1.0  0.5023568790527988  0.19718393896299055  0.5506161409957959  1.0000
  C   C8        1.0  0.4976431211322233  0.8028160606695576  0.4493838589908605  1.0000
  C   C9        1.0  0.9765852935817267  0.24449259600439768  0.6685243565865651  1.0000
  C   C10       1.0  0.02341470646421298  0.7555074046512731  0.331475643404687  1.0000
  C   C11       1.0  0.9130153874709811  0.35422369591668934  0.600545884857985  1.0000
  C   C12       1.0  0.08698461271404129  0.6457763037158588  0.39945411512867146  1.0000
  C   C13       1.0  0.9761467856890826  0.30729684114719164  0.7568435999550331  1.0000
  C   C14       1.0  0.023853213306477973  0.6927031584781175  0.2431564000297313  1.0000
  C   C15       1.0  0.8672888581563886  0.12425931714760155  0.6879953350179723  1.0000
  C   C16       1.0  0.13271114188955113  0.8757406835080694  0.3120046649732799  1.0000
  C   C17       1.0  0.16917418917004176  0.08482308146312745  0.5253380083892502  1.0000
  C   C18       1.0  0.8308258108758981  0.9151769191925433  0.47466199160200184  1.0000
  C   C19       1.0  0.5134241705698217  0.7565000584742796  0.8068806417486967  1.0000
  C   C20       1.0  0.4865758296152005  0.2434999411582685  0.19311935823795986  1.0000
  C   C21       1.0  0.49371482455979127  0.652293940434743  0.8911108851850584  1.0000
  C   C22       1.0  0.5062851754861485  0.34770606022092787  0.10888911480619363  1.0000
  C   C23       1.0  0.4279617428208068  0.7190708490203929  0.9782902069622675  1.0000
  C   C24       1.0  0.5720382573642155  0.2809291506121552  0.02170979302438904  1.0000
  C   C25       1.0  0.26055381581635945  0.7898279394534704  0.9709647749482737  1.0000
  C   C26       1.0  0.7394461843686628  0.2101720601790776  0.0290352250383827  1.0000
  C   C27       1.0  0.2574329184674052  0.9004315124544089  0.8900472123651664  1.0000
  C   C28       1.0  0.7425670817176172  0.09956848717813906  0.10995278762149008  1.0000
  C   C29       1.0  0.5556375367722124  0.6726493360718868  0.7242454801665712  1.0000
  C   C30       1.0  0.44436246341280977  0.3273506635606612  0.27575451982008536  1.0000
  C   C31       1.0  0.6554000148959852  0.8441224409218155  0.8047456130027975  1.0000
  C   C32       1.0  0.344599985289037  0.15587755871073258  0.19525438698385897  1.0000
  C   C33       1.0  0.0772014359784469  0.9272087478981429  0.8810261573239728  1.0000
  C   C34       1.0  0.9227985642065754  0.072791251734405  0.11897384266268358  1.0000
  C   C35       1.0  0.31959832263609933  0.03358569033442638  0.9096511788278191  1.0000
  C   C36       1.0  0.6804016775489229  0.9664143092981217  0.09034882115883738  1.0000
  C   C37       1.0  0.9796723668759609  0.5510571338279804  0.9124736902038969  1.0000
  C   C38       1.0  0.020327633169978872  0.4489428668276904  0.08752630978735515  1.0000
  C   C39       1.0  0.10426697662874408  0.44854303076214014  0.9251725800620906  1.0000
  C   C40       1.0  0.8957330234171957  0.5514569698935307  0.07482741992916146  1.0000
  C   C41       1.0  0.8756193635104065  0.602549768340278  0.9873530221769482  1.0000
  C   C42       1.0  0.12438063667461571  0.3974502312922701  0.012646977809708297  1.0000
  N   N1        1.0  0.23424937579692823  0.057449624155648464  0.7059951182804826  1.0000
  N   N2        1.0  0.7657506242490114  0.9425503765000225  0.2940048817107695  1.0000
  N   N3        1.0  0.3581013212496081  0.850012152560652  0.8042437027535618  1.0000
  N   N4        1.0  0.6418986789354141  0.14998784707189589  0.1957562972330947  1.0000
  P   P1        1.0  0.1843058754996011  0.16458855382371218  0.625181338349039  1.0000
  P   P2        1.0  0.8156941246854212  0.8354114458088358  0.3748186616376175  1.0000
  P   P3        1.0  0.33725398305518617  0.9098397842063015  0.6987243298347068  1.0000
  P   P4        1.0  0.6627460169907538  0.09016021644936938  0.30127567015654516  1.0000
  I   I1        1.0  0.09460430304084931  0.7254538204397509  0.6575111791688807  1.0000
  I   I2        1.0  0.9053956971441729  0.274546179192797  0.3424888208177758  1.0000
