data_image0
_chemical_formula_structural       H128C132N8
_chemical_formula_sum              "H128 C132 N8"
_cell_length_a       11.60760415156136
_cell_length_b       14.111421626362356
_cell_length_c       14.971717385418492
_cell_angle_alpha    90.0
_cell_angle_beta     101.4811366466223
_cell_angle_gamma    90.0

_space_group_name_H-M_alt    "P 1"
_space_group_IT_number       1

loop_
  _space_group_symop_operation_xyz
  'x, y, z'

loop_
  _atom_site_type_symbol
  _atom_site_label
  _atom_site_symmetry_multiplicity
  _atom_site_fract_x
  _atom_site_fract_y
  _atom_site_fract_z
  _atom_site_occupancy
  H   H1        1.0  0.42225997487017525  0.28927892370347197  0.16522708915894171  1.0000
  H   H2        1.0  0.5777400244889697  0.7892789234780391  0.3347729103367716  1.0000
  H   H3        1.0  0.5777400251606882  0.7107210765543082  0.8347729103845429  1.0000
  H   H4        1.0  0.4222599755418939  0.2107210760710952  0.665227089206713  1.0000
  H   H5        1.0  0.20340858763098058  0.2423381910445787  0.08010137169798225  1.0000
  H   H6        1.0  0.7965914126299721  0.7423381915277917  0.41989862858710925  1.0000
  H   H7        1.0  0.7965914124228973  0.7576618085045556  0.9198986285167511  1.0000
  H   H8        1.0  0.20340858742390588  0.25766180872998845  0.5801013716276242  1.0000
  H   H9        1.0  0.19551589144857293  0.31958616002054363  0.17455630553525003  1.0000
  H   H10       1.0  0.8044841088123799  0.8195861597951107  0.32544369474984153  1.0000
  H   H11       1.0  0.8044841086053051  0.6804138402372365  0.8254436946794834  1.0000
  H   H12       1.0  0.1955158912414982  0.18041384046266934  0.6745563054648918  1.0000
  H   H13       1.0  0.09961933784258073  0.14834294201013243  0.19888800994348108  1.0000
  H   H14       1.0  0.900380662418372  0.6483429417846996  0.3011119903416105  1.0000
  H   H15       1.0  0.9003806622112972  0.8516570582476476  0.8011119902712523  1.0000
  H   H16       1.0  0.09961933763550603  0.3516570577644347  0.6988880098731228  1.0000
  H   H17       1.0  0.19156487839590935  0.2563635249365417  0.3223700353317219  1.0000
  H   H18       1.0  0.8084351218650433  0.7563635247111088  0.1776299649533696  1.0000
  H   H19       1.0  0.8084351216579685  0.7436364753212384  0.6776299648830113  1.0000
  H   H20       1.0  0.19156487818883464  0.24363647554667126  0.8223700352613638  1.0000
  H   H21       1.0  0.21781171276325179  0.11821198417625434  0.42818994766251395  1.0000
  H   H22       1.0  0.782188287497701  0.6182119839508216  0.07181005262257754  1.0000
  H   H23       1.0  0.7821882872906263  0.8817880160815258  0.5718100525522194  1.0000
  H   H24       1.0  0.2178117125561771  0.3817880155983128  0.9281899475921558  1.0000
  H   H25       1.0  0.4224242324641042  0.1891425450015438  0.5143111701288127  1.0000
  H   H26       1.0  0.5775757673596846  0.6891425454847567  0.9856888293443139  1.0000
  H   H27       1.0  0.5775757675667593  0.8108574545475905  0.485688829414672  1.0000
  H   H28       1.0  0.4224242326711789  0.31085745477302335  0.014311170199170841  1.0000
  H   H29       1.0  0.33381967891521025  0.2842563971376443  0.45630129406188297  1.0000
  H   H30       1.0  0.6661803213457425  0.7842563969122114  0.0436987062232086  1.0000
  H   H31       1.0  0.6661803211386678  0.7157436031201359  0.5436987061528504  1.0000
  H   H32       1.0  0.3338196787081355  0.21574360263692288  0.9563012939915247  1.0000
  H   H33       1.0  0.5337447105406019  0.26490300899354696  0.39047789566472574  1.0000
  H   H34       1.0  0.4662552896973364  0.7649030087681141  0.10952210394911714  1.0000
  H   H35       1.0  0.4662552894902617  0.7350969912642331  0.609522103878759  1.0000
  H   H36       1.0  0.5337447103335271  0.2350969907810202  0.8904778955943674  1.0000
  H   H37       1.0  0.3453052807465023  0.3833825842105895  0.29765893741651284  1.0000
  H   H38       1.0  0.6546947195144504  0.8833825839851567  0.2023410628685787  1.0000
  H   H39       1.0  0.6546947193073757  0.6166174160471906  0.7023410627982205  1.0000
  H   H40       1.0  0.3453052805394276  0.11661741627262345  0.7976589373461548  1.0000
  H   H41       1.0  0.5390300068952153  0.12133027524324325  0.1183464599118987  1.0000
  H   H42       1.0  0.460969993342723  0.6213302750178104  0.3816535397019441  1.0000
  H   H43       1.0  0.4609699931356483  0.8786697250145369  0.881653539631586  1.0000
  H   H44       1.0  0.5390300066881406  0.3786697252399697  0.6183464598415405  1.0000
  H   H45       1.0  0.5038837735772657  0.9509233410566814  0.0779123849082955  1.0000
  H   H46       1.0  0.49611622668368693  0.45092334128211425  0.42208761537679607  1.0000
  H   H47       1.0  0.49611622647661224  0.04907665849245292  0.9220876153064379  1.0000
  H   H48       1.0  0.503883773370191  0.5490766589756659  0.5779123848379373  1.0000
  H   H49       1.0  0.32476190463055676  0.8692967834710068  0.10615542201353757  1.0000
  H   H50       1.0  0.6752380956303959  0.36929678369643965  0.39384457827155395  1.0000
  H   H51       1.0  0.6752380954233212  0.1307032167867733  0.8938445782011958  1.0000
  H   H52       1.0  0.3247619044234821  0.6307032165613404  0.6061554219431793  1.0000
  H   H53       1.0  0.1732185435011383  0.9577639183249325  0.16760080382518971  1.0000
  H   H54       1.0  0.8267814558580066  0.45776391855036525  0.3323991956705236  1.0000
  H   H55       1.0  0.8267814565297251  0.04223608122420192  0.832399195718295  1.0000
  H   H56       1.0  0.17321854329406358  0.5422360817074149  0.6676008037548316  1.0000
  H   H57       1.0  0.3824840289727129  0.7948807935158758  0.4565525327918492  1.0000
  H   H58       1.0  0.6175159712882398  0.2948807937413086  0.04344746749324235  1.0000
  H   H59       1.0  0.6175159710811651  0.20511920674190431  0.5434474674228841  1.0000
  H   H60       1.0  0.38248402876563814  0.7051192065164714  0.956552532721491  1.0000
  H   H61       1.0  0.2139278130250244  0.6935685013986047  0.47508453247243543  1.0000
  H   H62       1.0  0.7860721863571349  0.19356850162403752  0.024915467694526586  1.0000
  H   H63       1.0  0.7860721861500601  0.3064314981505296  0.5249154676241684  1.0000
  H   H64       1.0  0.21392781369674302  0.8064314986337425  0.9750845325202069  1.0000
  H   H65       1.0  0.009591083376994528  0.7475802898761116  0.4161019300161726  1.0000
  H   H66       1.0  0.9904089160051649  0.24758029010154442  0.08389807015078939  1.0000
  H   H67       1.0  0.9904089166768835  0.25241971038166855  0.5838980701985608  1.0000
  H   H68       1.0  0.009591084048713156  0.7524197101562357  0.916101930063944  1.0000
  H   H69       1.0  0.9743779882998752  0.9042967312492887  0.33735888018298266  1.0000
  H   H70       1.0  0.025622011938062992  0.40429673147472156  0.16264111943086018  1.0000
  H   H71       1.0  0.025622011730988277  0.09570326900849141  0.6626411193605021  1.0000
  H   H72       1.0  0.9743779880928006  0.5957032687830586  0.8373588801126244  1.0000
  H   H73       1.0  0.14181451330327216  0.00584487319448491  0.32133331266858167  1.0000
  H   H74       1.0  0.8581854869576806  0.505844872969052  0.17866668761650986  1.0000
  H   H75       1.0  0.8581854867506057  0.9941551270632952  0.6786666875461517  1.0000
  H   H76       1.0  0.14181451309619744  0.49415512728872807  0.8213333125982236  1.0000
  H   H77       1.0  0.791946318107253  0.9894638761211274  0.42984763474518733  1.0000
  H   H78       1.0  0.20805368215369968  0.48946387634656024  0.07015236553990424  1.0000
  H   H79       1.0  0.20805368194662496  0.010536123428006925  0.5701523654695461  1.0000
  H   H80       1.0  0.7919463179001783  0.5105361239112198  0.929847634674829  1.0000
  H   H81       1.0  0.9862443539106889  0.06259566565212896  0.42595591678251543  1.0000
  H   H82       1.0  0.013755646350263735  0.562595666135342  0.07404408350257613  1.0000
  H   H83       1.0  0.013755646143189016  0.9374043338970053  0.5740440834322179  1.0000
  H   H84       1.0  0.9862443537036143  0.4374043341224382  0.9259559167121572  1.0000
  H   H85       1.0  0.9957972914791312  0.2161429330622482  0.34497623297098323  1.0000
  H   H86       1.0  0.004202707880013587  0.7161429328368153  0.15502376652473016  1.0000
  H   H87       1.0  0.004202708551732213  0.7838570671955318  0.6550237665725015  1.0000
  H   H88       1.0  0.9957972912720566  0.2838570674209648  0.8449762329006251  1.0000
  H   H89       1.0  0.8106544837734841  0.292711492106751  0.26432412364486685  1.0000
  H   H90       1.0  0.18934551648746864  0.7927114918813181  0.2356758766402247  1.0000
  H   H91       1.0  0.18934551628039392  0.7072885081510292  0.7356758765698665  1.0000
  H   H92       1.0  0.8106544835664095  0.20728850837646198  0.7643241235745086  1.0000
  H   H93       1.0  0.6187066390939323  0.2208375876303066  0.26972002685695906  1.0000
  H   H94       1.0  0.3812933611670204  0.7208375874048737  0.23027997342813247  1.0000
  H   H95       1.0  0.3812933609599456  0.7791624126274735  0.7302799733577743  1.0000
  H   H96       1.0  0.6187066388868576  0.2791624128529064  0.7697200267866008  1.0000
  H   H97       1.0  0.9014862702421734  0.0740234476481496  0.9894475476859363  1.0000
  H   H98       1.0  0.09851372960462981  0.5740234474227167  0.5105524524584388  1.0000
  H   H99       1.0  0.09851372981170453  0.9259765526096305  0.010552452528796975  1.0000
  H   H100      1.0  0.9014862704492482  0.42597655283506336  0.48944754775629457  1.0000
  H   H101      1.0  0.03319452655259398  0.0780266580613702  0.07120659887176996  1.0000
  H   H102      1.0  0.9668054737083588  0.5780266585445832  0.4287934014133216  1.0000
  H   H103      1.0  0.966805473501284  0.9219733414877641  0.9287934013429634  1.0000
  H   H104      1.0  0.03319452634551927  0.42197334171319695  0.5712065988014119  1.0000
  H   H105      1.0  0.8498235392182468  0.9194807995645399  0.0564147598523576  1.0000
  H   H106      1.0  0.15017646016391253  0.41948079908132696  0.44358524031460445  1.0000
  H   H107      1.0  0.15017646083563116  0.08051920069324016  0.9435852403623758  1.0000
  H   H108      1.0  0.849823539011172  0.5805192004678074  0.5564147597819994  1.0000
  H   H109      1.0  0.9807834980258384  0.9264949950595629  0.13927793361423324  1.0000
  H   H110      1.0  0.019216501333306428  0.42649499457634993  0.36072206588148004  1.0000
  H   H111      1.0  0.019216501126231713  0.07350500519821723  0.860722065811122  1.0000
  H   H112      1.0  0.9807834986975572  0.5735050049727843  0.6392779336620046  1.0000
  H   H113      1.0  0.8252819164695954  0.9931815114798493  0.21133253584755637  1.0000
  H   H114      1.0  0.17471808291256397  0.4931815109966365  0.2886674643194057  1.0000
  H   H115      1.0  0.17471808358428262  0.006818488777930678  0.7886674643671769  1.0000
  H   H116      1.0  0.8252819171413139  0.5068184885524979  0.7113325358953276  1.0000
  H   H117      1.0  0.6666525303607844  0.9365990932698829  0.20495848338278366  1.0000
  H   H118      1.0  0.3333474698771539  0.4365990934953158  0.2950415162310592  1.0000
  H   H119      1.0  0.33334746967007917  0.06340090698789715  0.7950415161607011  1.0000
  H   H120      1.0  0.6666525301537096  0.5634009067624642  0.7049584833124254  1.0000
  H   H121      1.0  0.7686234983262445  0.06162954754149645  0.11369572029601416  1.0000
  H   H122      1.0  0.23137650191169368  0.5616295473160636  0.3863042793178287  1.0000
  H   H123      1.0  0.23137650170461893  0.9383704527162837  0.8863042792474705  1.0000
  H   H124      1.0  0.7686234981191697  0.4383704522330707  0.613695720225656  1.0000
  H   H125      1.0  0.09545540382766828  0.9080894079488507  0.8160331711945947  1.0000
  H   H126      1.0  0.904544596019135  0.4080894074656377  0.6839668289497803  1.0000
  H   H127      1.0  0.9045445962262096  0.09191059230892941  0.18396682902013858  1.0000
  H   H128      1.0  0.09545540401172854  0.5919105920834965  0.3160331705937043  1.0000
  C   C1        1.0  0.26949815183757225  0.08973466908779641  0.17595552241676488  1.0000
  C   C2        1.0  0.7305018484233805  0.5897346688623636  0.3240444778683267  1.0000
  C   C3        1.0  0.7305018482163057  0.9102653311699836  0.8240444777979685  1.0000
  C   C4        1.0  0.26949815163049756  0.41026533068677074  0.6759555223464067  1.0000
  C   C5        1.0  0.3732317644047293  0.13537341669610647  0.16294759558013155  1.0000
  C   C6        1.0  0.6267682358562233  0.6353734164706737  0.33705240470496  1.0000
  C   C7        1.0  0.6267682356491486  0.8646265835616735  0.8370524046346018  1.0000
  C   C8        1.0  0.37323176419765464  0.3646265837871065  0.6629475955097734  1.0000
  C   C9        1.0  0.3633028795434683  0.2393425006655862  0.18966938218007062  1.0000
  C   C10       1.0  0.6366971206944699  0.7393425004401534  0.3103306174337722  1.0000
  C   C11       1.0  0.6366971204873951  0.7606574988835482  0.810330617363414  1.0000
  C   C12       1.0  0.3633028793363936  0.2606574991089809  0.6896693821097125  1.0000
  C   C13       1.0  0.22830631908407362  0.251500185733935  0.1543250550118384  1.0000
  C   C14       1.0  0.7716936811768791  0.7515001855085022  0.34567494527325315  1.0000
  C   C15       1.0  0.7716936809698044  0.7484998145238451  0.8456749452028949  1.0000
  C   C16       1.0  0.22830631887699893  0.24849981404063212  0.6543250549414803  1.0000
  C   C17       1.0  0.193468920931615  0.16457101073796282  0.20806774157630592  1.0000
  C   C18       1.0  0.8065310793293378  0.6645710112211758  0.2919322587087856  1.0000
  C   C19       1.0  0.806531079122263  0.8354289888111714  0.7919322586384274  1.0000
  C   C20       1.0  0.1934689207245403  0.33542898903660434  0.7080677415059479  1.0000
  C   C21       1.0  0.2500972715734727  0.19987602700005766  0.30541358153996423  1.0000
  C   C22       1.0  0.7499027286874801  0.6998760274832706  0.19458641874512733  1.0000
  C   C23       1.0  0.7499027284804053  0.8001239725490766  0.6945864186747691  1.0000
  C   C24       1.0  0.250097271366398  0.3001239727745095  0.8054135814696062  1.0000
  C   C25       1.0  0.28908416654182756  0.14149865923287006  0.3953734915336397  1.0000
  C   C26       1.0  0.7109158328403318  0.6414986590074372  0.10462650863332235  1.0000
  C   C27       1.0  0.7109158326332571  0.85850134102491  0.6046265085629642  1.0000
  C   C28       1.0  0.2890841672135462  0.35850134125034294  0.895373491581411  1.0000
  C   C29       1.0  0.3758719280768463  0.21600904718951155  0.4481922837649651  1.0000
  C   C30       1.0  0.6241280712822986  0.7160090476727244  0.051807715730748244  1.0000
  C   C31       1.0  0.6241280710982384  0.7839909523596228  0.5518077163316388  1.0000
  C   C32       1.0  0.37587192874856484  0.28399095258505563  0.9481922838127365  1.0000
  C   C33       1.0  0.4558585490544645  0.21967275885293575  0.3763047982604479  1.0000
  C   C34       1.0  0.5441414512064882  0.7196727586275028  0.12369520202464367  1.0000
  C   C35       1.0  0.5441414509994135  0.7803272414048443  0.6236952019542855  1.0000
  C   C36       1.0  0.45585854884738974  0.2803272409216314  0.8763047981900897  1.0000
  C   C37       1.0  0.3653992921099052  0.2394527666643778  0.29096025365167033  1.0000
  C   C38       1.0  0.6346007081510475  0.7394527671475908  0.20903974663342123  1.0000
  C   C39       1.0  0.6346007079439728  0.7605472328847566  0.709039746563063  1.0000
  C   C40       1.0  0.3653992919028305  0.26054723311018935  0.7909602535813122  1.0000
  C   C41       1.0  0.459017531261661  0.08629899752445601  0.1290081746210173  1.0000
  C   C42       1.0  0.5409824689992916  0.5862989980076689  0.3709918256640743  1.0000
  C   C43       1.0  0.5409824687922169  0.9137010020246783  0.8709918255937161  1.0000
  C   C44       1.0  0.4590175310545863  0.41370100225011114  0.629008174550659  1.0000
  C   C45       1.0  0.4392407893662696  0.9901072556643365  0.10689826119801281  1.0000
  C   C46       1.0  0.5607592108946831  0.49010725518112347  0.3931017390870787  1.0000
  C   C47       1.0  0.5607592106876084  0.00989274459344365  0.8931017390167206  1.0000
  C   C48       1.0  0.4392407891591949  0.5098927443680108  0.6068982611276547  1.0000
  C   C49       1.0  0.3381368619228625  0.9444636049355732  0.12180423186708465  1.0000
  C   C50       1.0  0.6618631383150757  0.444463605161006  0.37819576774675817  1.0000
  C   C51       1.0  0.661863138108001  0.05553639532220692  0.8781957676764001  1.0000
  C   C52       1.0  0.33813686171578783  0.555536395096774  0.6218042317967264  1.0000
  C   C53       1.0  0.25223103545437164  0.9940871906054822  0.15692485132839487  1.0000
  C   C54       1.0  0.7477689647835666  0.49408719083091507  0.34307514828544794  1.0000
  C   C55       1.0  0.7477689645764918  0.005912809652297853  0.8430751482150899  1.0000
  C   C56       1.0  0.25223103524729695  0.505912809426865  0.6569248512580367  1.0000
  C   C57       1.0  0.5783237404770506  0.060150775200018394  0.3617720422161476  1.0000
  C   C58       1.0  0.42167625890510874  0.5601507756832314  0.1382279579508145  1.0000
  C   C59       1.0  0.4216762595768273  0.9398492243491159  0.6382279579985857  1.0000
  C   C60       1.0  0.5783237411487693  0.4398492245745487  0.8617720422639188  1.0000
  C   C61       1.0  0.4793348767705103  0.1135609021139491  0.37017636830070516  1.0000
  C   C62       1.0  0.5206651234904425  0.6135609025971621  0.12982363198438643  1.0000
  C   C63       1.0  0.5206651232833677  0.8864390974351851  0.6298236319140281  1.0000
  C   C64       1.0  0.4793348765634355  0.38643909766061807  0.8701763682303468  1.0000
  C   C65       1.0  0.3764576535307102  0.0662405578084169  0.3810402518231572  1.0000
  C   C66       1.0  0.6235423467072281  0.566240557582984  0.11895974779068566  1.0000
  C   C67       1.0  0.6235423465001533  0.9337594424493633  0.6189597477203276  1.0000
  C   C68       1.0  0.3764576533236355  0.43375944267479605  0.881040251752799  1.0000
  C   C69       1.0  0.37634155058695545  0.9675593828543012  0.38150435960730456  1.0000
  C   C70       1.0  0.6236584496739973  0.4675593823710882  0.118495640677787  1.0000
  C   C71       1.0  0.6236584494669226  0.03244061740347896  0.6184956406074289  1.0000
  C   C72       1.0  0.37634155037988065  0.5324406171780461  0.8815043595369464  1.0000
  C   C73       1.0  0.27449782207116374  0.9080045745400208  0.3895822289829236  1.0000
  C   C74       1.0  0.7255021773109956  0.4080045747654537  0.11041777118403846  1.0000
  C   C75       1.0  0.7255021779827143  0.09199542500911345  0.6104177712318098  1.0000
  C   C76       1.0  0.27449782274288237  0.5919954254923264  0.889582229030695  1.0000
  C   C77       1.0  0.292770884443141  0.8184889365379533  0.43121725415989415  1.0000
  C   C78       1.0  0.7072291149390182  0.3184889360547403  0.06878274600706791  1.0000
  C   C79       1.0  0.707229115610737  0.18151106371982684  0.5687827460548391  1.0000
  C   C80       1.0  0.2927708842360663  0.6815110634943939  0.931217254089536  1.0000
  C   C81       1.0  0.19816905171472046  0.7617613196333229  0.44090633962176595  1.0000
  C   C82       1.0  0.8018309476674389  0.2617613198587557  0.059093660545196124  1.0000
  C   C83       1.0  0.8018309483391575  0.2382386799158114  0.5590936605929674  1.0000
  C   C84       1.0  0.1981690523864391  0.7382386803990244  0.9409063396695373  1.0000
  C   C85       1.0  0.08322207733600402  0.792149707944171  0.4077117904884144  1.0000
  C   C86       1.0  0.9167779229019343  0.2921497081696039  0.09228820912542844  1.0000
  C   C87       1.0  0.9167779227178741  0.2078502916049632  0.592288209726319  1.0000
  C   C88       1.0  0.0832220771289293  0.7078502920881762  0.9077117904180562  1.0000
  C   C89       1.0  0.0636313034035397  0.8799104745622147  0.36440480884771587  1.0000
  C   C90       1.0  0.9363686968574129  0.3799104747876475  0.13559519143737567  1.0000
  C   C91       1.0  0.9363686966503383  0.12008952498691962  0.6355951913670175  1.0000
  C   C92       1.0  0.06363130319646498  0.6200895254701325  0.8644048087773577  1.0000
  C   C93       1.0  0.15835231070840178  0.9377898230521049  0.3559221742633213  1.0000
  C   C94       1.0  0.8416476886507431  0.43778982327753774  0.14407782523239204  1.0000
  C   C95       1.0  0.8416476893454763  0.06221017720567524  0.644077825951412  1.0000
  C   C96       1.0  0.1583523113801204  0.5622101769802423  0.8559221743110926  1.0000
  C   C97       1.0  0.6922827395287559  0.10125668397085062  0.35277850797551147  1.0000
  C   C98       1.0  0.30771726070918237  0.6012566837454177  0.14722149163833134  1.0000
  C   C99       1.0  0.3077172605021076  0.8987433162869295  0.6472214915679732  1.0000
  C   C100      1.0  0.6922827393446956  0.3987433158037165  0.8527785085764019  1.0000
  C   C101      1.0  0.7974512079624979  0.056217476949166824  0.39426982121870496  1.0000
  C   C102      1.0  0.20254879229845485  0.5562174774323798  0.10573017906638657  1.0000
  C   C103      1.0  0.20254879209138013  0.9437825225999674  0.6057301789960283  1.0000
  C   C104      1.0  0.7974512077554231  0.4437825228254003  0.8942698211483469  1.0000
  C   C105      1.0  0.9056663129062383  0.09755049607676232  0.39184486665032925  1.0000
  C   C106      1.0  0.09433368647592096  0.5975504958513295  0.10815513351663279  1.0000
  C   C107      1.0  0.09433368626884624  0.9024495034723721  0.6081551334462746  1.0000
  C   C108      1.0  0.9056663135779571  0.4024495036978048  0.8918448666981006  1.0000
  C   C109      1.0  0.9109933627264009  0.18367008928129705  0.3466378626239984  1.0000
  C   C110      1.0  0.0890066366557585  0.6836700890558641  0.15336213754296357  1.0000
  C   C111      1.0  0.08900663732747714  0.816329910976483  0.6533621375907349  1.0000
  C   C112      1.0  0.9109933633981194  0.3163299112019159  0.8466378626717698  1.0000
  C   C113      1.0  0.8074231062487341  0.227332638407386  0.3024337992990831  1.0000
  C   C114      1.0  0.19257689401221859  0.727332638181953  0.19756620098600844  1.0000
  C   C115      1.0  0.19257689380514384  0.7726673618503942  0.6975662009156502  1.0000
  C   C116      1.0  0.8074231060416595  0.272667362075827  0.802433799228725  1.0000
  C   C117      1.0  0.6988174682819606  0.18658457876995121  0.30558680825602497  1.0000
  C   C118      1.0  0.30118253197899214  0.6865845792531641  0.19441319202906654  1.0000
  C   C119      1.0  0.30118253177191745  0.8134154207791832  0.6944131919587084  1.0000
  C   C120      1.0  0.6988174680748858  0.3134154210046159  0.8055868081856667  1.0000
  C   C121      1.0  0.9693194401105479  0.029110048645459685  0.030988463987759493  1.0000
  C   C122      1.0  0.030680560150404816  0.5291100484200268  0.46901153629733205  1.0000
  C   C123      1.0  0.030680559943330105  0.9708899516123204  0.9690115362269739  1.0000
  C   C124      1.0  0.9693194399034731  0.4708899511291075  0.5309884639174014  1.0000
  C   C125      1.0  0.9126182135090655  0.9699724345582051  0.09598047832604574  1.0000
  C   C126      1.0  0.08738178587309389  0.4699724347836379  0.40401952184091633  1.0000
  C   C127      1.0  0.08738178566601917  0.03002756569957506  0.9040195217705581  1.0000
  C   C128      1.0  0.912618214180784  0.5300275654741422  0.5959804783738171  1.0000
  C   C129      1.0  0.8497470149335926  0.031899272229174984  0.1545790117867954  1.0000
  C   C130      1.0  0.1502529844485667  0.5318992727123879  0.3454209883801667  1.0000
  C   C131      1.0  0.15025298512028534  0.9681007273199593  0.845420988427938  1.0000
  C   C132      1.0  0.8497470156053112  0.4681007275453921  0.6545790118345668  1.0000
  N   N1        1.0  0.47733447772699455  0.9197287696197656  0.37745222936797446  1.0000
  N   N2        1.0  0.5226655225339581  0.4197287691365525  0.12254777091711708  1.0000
  N   N3        1.0  0.5226655223268835  0.08027123063801461  0.6225477708467589  1.0000
  N   N4        1.0  0.47733447751991986  0.5802712304125818  0.8774522292976163  1.0000
  N   N5        1.0  0.5744185795077965  0.9643292986567709  0.36941330300658043  1.0000
  N   N6        1.0  0.4255814198513484  0.4643292988822037  0.13058669648913293  1.0000
  N   N7        1.0  0.42558142054608145  0.035670700892363405  0.630586697208153  1.0000
  N   N8        1.0  0.5744185793007218  0.5356707013755764  0.8694133029362223  1.0000
