data_image0
_chemical_formula_structural       H24C26N6O4Cl6
_chemical_formula_sum              "H24 C26 N6 O4 Cl6"
_cell_length_a       7.266544312098393
_cell_length_b       7.459156540656405
_cell_length_c       14.862144836890232
_cell_angle_alpha    92.52560320727257
_cell_angle_beta     97.9906611007264
_cell_angle_gamma    113.58772353845052

_space_group_name_H-M_alt    "P 1"
_space_group_IT_number       1

loop_
  _space_group_symop_operation_xyz
  'x, y, z'

loop_
  _atom_site_type_symbol
  _atom_site_label
  _atom_site_symmetry_multiplicity
  _atom_site_fract_x
  _atom_site_fract_y
  _atom_site_fract_z
  _atom_site_occupancy
  H   H1        1.0  0.6115197711219043  0.08588486469827232  0.0743938583869352  1.0000
  H   H2        1.0  0.3884802295081806  0.9141151349206931  0.9256061415650353  1.0000
  H   H3        1.0  0.7541771989386805  0.31992383234269106  0.13592014834655444  1.0000
  H   H4        1.0  0.24582280031710055  0.6800761672784412  0.8640798516087876  1.0000
  H   H5        1.0  0.27031664846637277  0.21129679331292875  0.7240469920466381  1.0000
  H   H6        1.0  0.7296833507894084  0.7887032063082037  0.275953007908704  1.0000
  H   H7        1.0  0.1900537701980499  0.029188210758270123  0.8007780496831379  1.0000
  H   H8        1.0  0.8099462310335699  0.9708117903231656  0.19922195026721187  1.0000
  H   H9        1.0  0.3852832198117674  0.04096250326925714  0.7404717102407606  1.0000
  H   H10       1.0  0.6147167800455483  0.9590374978143452  0.2595282897129609  1.0000
  H   H11       1.0  0.7550010840838259  0.822584575332867  0.8234635823365185  1.0000
  H   H12       1.0  0.24499891577348978  0.17741542575073532  0.17653641761720298  1.0000
  H   H13       1.0  0.9680191481566748  0.8541862122668323  0.9090776571601313  1.0000
  H   H14       1.0  0.03198085247341027  0.14581378735213313  0.09092234279183914  1.0000
  H   H15       1.0  0.7603410288371436  0.8924459179307305  0.9408693630510471  1.0000
  H   H16       1.0  0.23965897179294138  0.10755408168823506  0.0591306369009235  1.0000
  H   H17       1.0  0.5036457961986067  0.5275194776918721  0.7516899882360422  1.0000
  H   H18       1.0  0.4963542033261455  0.4724805220943882  0.24831001240287373  1.0000
  H   H19       1.0  0.9742790992904667  0.8409619651181183  0.4397212850944906  1.0000
  H   H20       1.0  0.025720900566849007  0.1590380359654841  0.5602787148592308  1.0000
  H   H21       1.0  0.5093927510961374  0.7629791941540622  0.38940557085589655  1.0000
  H   H22       1.0  0.4906072495339476  0.23702080546490323  0.6105944290960739  1.0000
  H   H23       1.0  0.5528660452386941  0.6680227910842451  0.5451164086830478  1.0000
  H   H24       1.0  0.447133954017087  0.3319772085368872  0.45488359127229433  1.0000
  C   C1        1.0  0.47786895111049166  0.269715111163169  0.8508454231893428  1.0000
  C   C2        1.0  0.5221310495195932  0.7302848884557964  0.14915457676262767  1.0000
  C   C3        1.0  0.653820400304891  0.3151001462918895  0.9984671140136818  1.0000
  C   C4        1.0  0.34617960032519407  0.6848998533270761  0.0015328859382886838  1.0000
  C   C5        1.0  0.7489716541247348  0.5201500888605388  0.9900458365575053  1.0000
  C   C6        1.0  0.2510283465053502  0.4798499107584267  0.00995416339446514  1.0000
  C   C7        1.0  0.7034266813865602  0.5896897240717445  0.9088495064162604  1.0000
  C   C8        1.0  0.2965733178692208  0.41031027554938787  0.0911504935390817  1.0000
  C   C9        1.0  0.3220116122865483  0.13142925553585563  0.7744419348598903  1.0000
  C   C10       1.0  0.6779883883435367  0.8685707440831099  0.2255580650920802  1.0000
  C   C11       1.0  0.8014704381166989  0.8017492028178522  0.8941071441988352  1.0000
  C   C12       1.0  0.19852956200958796  0.19825079843087814  0.10589285643846004  1.0000
  C   C13       1.0  0.2903951345154261  0.6972819586270038  0.582309027840465  1.0000
  C   C14       1.0  0.7096048661146588  0.3027180409919616  0.41769097211150535  1.0000
  C   C15       1.0  0.12720802833976072  0.7483820884136224  0.5509267282488537  1.0000
  C   C16       1.0  0.8727919715175552  0.25161791266998007  0.44907327170486766  1.0000
  C   C17       1.0  0.10176382881895303  0.8035055811246721  0.46291371115885677  1.0000
  C   C18       1.0  0.8982361704368279  0.19649441849646038  0.5370862887964852  1.0000
  C   C19       1.0  0.23988009651514286  0.8093263963375088  0.40564327334921774  1.0000
  C   C20       1.0  0.7601199027406382  0.19067360328362348  0.5943567266061244  1.0000
  C   C21       1.0  0.4038044683159397  0.7616066991493564  0.4346668817661321  1.0000
  C   C22       1.0  0.5961955323141453  0.23839330046960916  0.5653331181858383  1.0000
  C   C23       1.0  0.4260400587762324  0.7064536313895918  0.5219445840695562  1.0000
  C   C24       1.0  0.5739599424553874  0.2935463696918438  0.47805541588079353  1.0000
  C   C25       1.0  0.3264027652604203  0.6333419677778884  0.6748062413196121  1.0000
  C   C26       1.0  0.6735972339953606  0.36665803184324375  0.3251937586357299  1.0000
  N   N1        1.0  0.5641359889403196  0.4616577405848804  0.8393903227976117  1.0000
  N   N2        1.0  0.4358640122913001  0.5383422604965552  0.1606096771527381  1.0000
  N   N3        1.0  0.5198650883062231  0.19280471416548658  0.9262326984592446  1.0000
  N   N4        1.0  0.48013491094955785  0.8071952854556459  0.07376730149609739  1.0000
  N   N5        1.0  0.6913576350909725  0.2360061588100507  0.074019843535863  1.0000
  N   N6        1.0  0.30864236553911256  0.7639938408089149  0.9259801564161075  1.0000
  O   O1        1.0  0.4715703087337212  0.5669641480352207  0.6835150972112191  1.0000
  O   O2        1.0  0.5284296911235946  0.4330358530483817  0.31648490274250235  1.0000
  O   O3        1.0  0.23039924797453468  0.6422946883868432  0.736122149226837  1.0000
  O   O4        1.0  0.7696007512812463  0.35770531123428906  0.26387785072850506  1.0000
  Cl  Cl1       1.0  0.9223435477853084  0.6751701391086371  0.08098661784924496  1.0000
  Cl  Cl2       1.0  0.07765645147047265  0.32482986051249507  0.9190133821060972  1.0000
  Cl  Cl3       1.0  0.946035479578442  0.7433641996150772  0.6157894861580507  1.0000
  Cl  Cl4       1.0  0.053964521051643045  0.2566358000038884  0.3842105137939198  1.0000
  Cl  Cl5       1.0  0.2058238956768141  0.8755027321257135  0.29669198784282264  1.0000
  Cl  Cl6       1.0  0.7941761041805017  0.1244972689578889  0.7033080121108988  1.0000
