data_image0
_chemical_formula_structural       H28C22N6O4S2Cl2Br2
_chemical_formula_sum              "H28 C22 N6 O4 S2 Cl2 Br2"
_cell_length_a       7.837786271522549
_cell_length_b       7.908909112596217
_cell_length_c       12.479035690505691
_cell_angle_alpha    75.45002518012049
_cell_angle_beta     83.47442028235008
_cell_angle_gamma    83.74845378683982

_space_group_name_H-M_alt    "P 1"
_space_group_IT_number       1

loop_
  _space_group_symop_operation_xyz
  'x, y, z'

loop_
  _atom_site_type_symbol
  _atom_site_label
  _atom_site_symmetry_multiplicity
  _atom_site_fract_x
  _atom_site_fract_y
  _atom_site_fract_z
  _atom_site_occupancy
  H   H1        1.0  0.36877893629029507  0.33003570435686574  0.6568555805876078  1.0000
  H   H2        1.0  0.6312210638175273  0.669964295324741  0.3431444199455193  1.0000
  H   H3        1.0  0.5224830884241086  0.605323232288936  0.05510299425740362  1.0000
  H   H4        1.0  0.47751691184012535  0.3946767676472551  0.9448970054457642  1.0000
  H   H5        1.0  0.8245356071575898  0.6980348472196201  0.9490669226166526  1.0000
  H   H6        1.0  0.17546439295023258  0.3019651524619867  0.05093307791647459  1.0000
  H   H7        1.0  0.9579097629073235  0.008691230667719547  0.4117970323666697  1.0000
  H   H8        1.0  0.04209023735691045  0.9913087692684717  0.5882029673364982  1.0000
  H   H9        1.0  0.958381253427156  0.8881012024517616  0.3103323301960115  1.0000
  H   H10       1.0  0.041618746680666355  0.11189879722984518  0.6896676703371157  1.0000
  H   H11       1.0  0.3479646757670368  0.5641462404668022  0.7552087258004374  1.0000
  H   H12       1.0  0.6520353242786615  0.4358537607528768  0.24479127386083382  1.0000
  H   H13       1.0  0.12259468862942464  0.5512777974448678  0.7845366936949623  1.0000
  H   H14       1.0  0.8774053114162736  0.44872220377481126  0.21546330596630878  1.0000
  H   H15       1.0  0.20593370769072397  0.7603584137602756  0.7416761299629516  1.0000
  H   H16       1.0  0.7940662925735101  0.23964158617591544  0.25832386974021626  1.0000
  H   H17       1.0  0.5261232843647209  0.008521980383088034  0.5750391989549994  1.0000
  H   H18       1.0  0.473876715899513  0.9914780195531031  0.42496080074816844  1.0000
  H   H19       1.0  0.4474838857408721  0.2667259217831529  0.4771751544415225  1.0000
  H   H20       1.0  0.5525161132629989  0.7332740780740673  0.5228248452421356  1.0000
  H   H21       1.0  0.24335788114093038  0.22974235524139253  0.44099227936247015  1.0000
  H   H22       1.0  0.756642118966892  0.7702576444402144  0.559007721170657  1.0000
  H   H23       1.0  0.3794146319743043  0.363981858833254  0.34106193756400005  1.0000
  H   H24       1.0  0.6205853666546194  0.6360181420528699  0.6589380629077206  1.0000
  H   H25       1.0  0.4120472263293446  0.9723507178281842  0.5647406074757289  1.0000
  H   H26       1.0  0.5879527737784779  0.02764928185342249  0.4352593930573982  1.0000
  H   H27       1.0  0.614008809659306  0.03601683675826281  0.5101223093447431  1.0000
  H   H28       1.0  0.3859911904485163  0.9639831629233439  0.48987769118838403  1.0000
  C   C1        1.0  0.35460942182199134  0.11191169456023459  0.7794247282058085  1.0000
  C   C2        1.0  0.6453905784422426  0.8880883053759565  0.22057527149735934  1.0000
  C   C3        1.0  0.4583495174929119  0.9663233386005787  0.8469502020050481  1.0000
  C   C4        1.0  0.5416504826149104  0.03367666108102799  0.15304979852807893  1.0000
  C   C5        1.0  0.40375072467272305  0.8311385493362942  0.9350917808693886  1.0000
  C   C6        1.0  0.5962492741747364  0.16886145026634178  0.06490821964422874  1.0000
  C   C7        1.0  0.5405641758069542  0.7161757211241654  0.9841782311165085  1.0000
  C   C8        1.0  0.4594358244572799  0.28382427881202565  0.015821768586659395  1.0000
  C   C9        1.0  0.6982077516829251  0.7632256266608771  0.9305021907512881  1.0000
  C   C10       1.0  0.3017922485813088  0.23677437327531412  0.06949780895187958  1.0000
  C   C11       1.0  0.20317223238043108  0.6265874748163625  0.6119682282486437  1.0000
  C   C12       1.0  0.7968277666234401  0.3734125250408577  0.3880317714350144  1.0000
  C   C13       1.0  0.09156049434326441  0.7631793573066481  0.44432259322705975  1.0000
  C   C14       1.0  0.908439505764558  0.2368206423749585  0.5556774073060674  1.0000
  C   C15       1.0  0.16556760583974386  0.6181480312784414  0.401870914121604  1.0000
  C   C16       1.0  0.8344323942059545  0.3818519699412375  0.5981290855396671  1.0000
  C   C17       1.0  0.2568794985164703  0.4814930411264919  0.4699302937667765  1.0000
  C   C18       1.0  0.7431205015913521  0.5185069585551149  0.5300697067663507  1.0000
  C   C19       1.0  0.22226221579494904  0.6269441206600556  0.7298775785202763  1.0000
  C   C20       1.0  0.7777377844692849  0.37305587927613554  0.2701224211828916  1.0000
  C   C21       1.0  0.33790261237991814  0.3269510213429922  0.42993203845204164  1.0000
  C   C22       1.0  0.6620973878843158  0.673048978593199  0.5700679612511261  1.0000
  N   N1        1.0  0.27365738768063474  0.48511718644628465  0.5767020471857723  1.0000
  N   N2        1.0  0.7263426125835991  0.5148828134899065  0.4232979525173956  1.0000
  N   N3        1.0  0.1153982608737164  0.7643992791241137  0.5504238575381952  1.0000
  N   N4        1.0  0.884601739234106  0.2356007205574932  0.44957614299493187  1.0000
  N   N5        1.0  0.0006274679860548039  0.8985150356620568  0.38309556224983654  1.0000
  N   N6        1.0  0.9993725321217677  0.10148496401955003  0.6169044382832907  1.0000
  O   O1        1.0  0.44740047049007636  0.22982516047338175  0.7084669655644252  1.0000
  O   O2        1.0  0.552599529617746  0.7701748392082249  0.2915330349687019  1.0000
  O   O3        1.0  0.1949948673868605  0.12006006273597536  0.7899588847072478  1.0000
  O   O4        1.0  0.8050051328773734  0.8799399372002157  0.21004111499592015  1.0000
  S   S1        1.0  0.6802896287945676  0.9462409669364488  0.8242437026827691  1.0000
  S   S2        1.0  0.31971037146966647  0.05375903299974236  0.1757562970203987  1.0000
  Cl  Cl1       1.0  0.14894746431623085  0.6199702590770708  0.26521570396674127  1.0000
  Cl  Cl2       1.0  0.8510525359480031  0.38002974085912017  0.7347842957364268  1.0000
  Br  Br1       1.0  0.171604278370952  0.7978629184289394  0.9881762176193626  1.0000
  Br  Br2       1.0  0.8283957218932819  0.20213708150725154  0.01182378208380539  1.0000
