data_image0
_chemical_formula_structural       H84C44N4I8
_chemical_formula_sum              "H84 C44 N4 I8"
_cell_length_a       28.98624554356685
_cell_length_b       7.183366413925669
_cell_length_c       6.877031440784026
_cell_angle_alpha    90.0
_cell_angle_beta     89.50180119596239
_cell_angle_gamma    90.0

_space_group_name_H-M_alt    "P 1"
_space_group_IT_number       1

loop_
  _space_group_symop_operation_xyz
  'x, y, z'

loop_
  _atom_site_type_symbol
  _atom_site_label
  _atom_site_symmetry_multiplicity
  _atom_site_fract_x
  _atom_site_fract_y
  _atom_site_fract_z
  _atom_site_occupancy
  H   H1        1.0  0.5184031631989751  0.0  0.14638940265808403  1.0000
  H   H2        1.0  0.48159683695264666  0.0  0.8536105975407621  1.0000
  H   H3        1.0  0.018403163045176647  0.5000000004228052  0.14638940364960545  1.0000
  H   H4        1.0  0.981596837106445  0.5000000004228052  0.8536105965492405  1.0000
  H   H5        1.0  0.4183148425295285  0.0  0.6189582403477506  1.0000
  H   H6        1.0  0.581685157277091  0.0  0.38104175985876226  1.0000
  H   H7        1.0  0.9183148426833267  0.5000000004228052  0.6189582393562293  1.0000
  H   H8        1.0  0.08168515746947574  0.5000000004228052  0.38104175938846624  1.0000
  H   H9        1.0  0.10856991697335466  0.12405264031533793  0.7047914512766321  1.0000
  H   H10       1.0  0.8914300828332647  0.12405264031533793  0.29520854892988074  1.0000
  H   H11       1.0  0.608569917127153  0.6240526407381433  0.7047914502851107  1.0000
  H   H12       1.0  0.3914300830244687  0.6240526407381433  0.29520854991373535  1.0000
  H   H13       1.0  0.8914300828332647  0.8759473591381677  0.29520854892988074  1.0000
  H   H14       1.0  0.10856991697335466  0.8759473591381677  0.7047914512766321  1.0000
  H   H15       1.0  0.3914300830244687  0.3759473587153624  0.29520854991373535  1.0000
  H   H16       1.0  0.608569917127153  0.3759473587153624  0.7047914502851107  1.0000
  H   H17       1.0  0.13192463035541735  0.1241525461197542  0.3511771670985521  1.0000
  H   H18       1.0  0.8680753694512021  0.1241525461197542  0.6488228331079606  1.0000
  H   H19       1.0  0.6319246305092157  0.6241525451504545  0.35117716610703076  1.0000
  H   H20       1.0  0.3680753696435869  0.6241525451504545  0.6488228326376648  1.0000
  H   H21       1.0  0.8680753694512021  0.8758474547258563  0.6488228331079606  1.0000
  H   H22       1.0  0.13192463035541735  0.8758474547258563  0.3511771670985521  1.0000
  H   H23       1.0  0.3680753696435869  0.3758474543030511  0.6488228326376648  1.0000
  H   H24       1.0  0.6319246305092157  0.3758474543030511  0.35117716610703076  1.0000
  H   H25       1.0  0.04829901006169076  0.12293153782161188  0.4446526590607567  1.0000
  H   H26       1.0  0.9517009897449287  0.12293153782161188  0.5553473411457562  1.0000
  H   H27       1.0  0.5482990102154891  0.6229315382444172  0.44465265806923526  1.0000
  H   H28       1.0  0.45170098993613256  0.6229315382444172  0.5553473421296108  1.0000
  H   H29       1.0  0.9517009897449287  0.8770684616318937  0.5553473411457562  1.0000
  H   H30       1.0  0.04829901006169076  0.8770684616318937  0.4446526590607567  1.0000
  H   H31       1.0  0.45170098993613256  0.37706846120908843  0.5553473421296108  1.0000
  H   H32       1.0  0.5482990102154891  0.37706846120908843  0.44465265806923526  1.0000
  H   H33       1.0  0.07187567197622916  0.1230007087327653  0.09278842814498794  1.0000
  H   H34       1.0  0.9281243278303903  0.1230007087327653  0.9072115720615249  1.0000
  H   H35       1.0  0.5718756721288467  0.6230007091555706  0.09278842860761706  1.0000
  H   H36       1.0  0.42812432802277506  0.6230007091555706  0.9072115715912289  1.0000
  H   H37       1.0  0.9281243278303903  0.8769992907207402  0.9072115720615249  1.0000
  H   H38       1.0  0.07187567197622916  0.8769992907207402  0.09278842814498794  1.0000
  H   H39       1.0  0.42812432802277506  0.37699929169003993  0.9072115715912289  1.0000
  H   H40       1.0  0.5718756721288467  0.37699929169003993  0.09278842860761706  1.0000
  H   H41       1.0  0.9874390732875937  0.12288771018121898  0.17559322786801584  1.0000
  H   H42       1.0  0.01256092651902587  0.12288771018121898  0.824406772338497  1.0000
  H   H43       1.0  0.48743907347997834  0.6228877106040243  0.17559322739771988  1.0000
  H   H44       1.0  0.5125609266716434  0.6228877106040243  0.8244067728011262  1.0000
  H   H45       1.0  0.01256092651902587  0.8771122892722867  0.824406772338497  1.0000
  H   H46       1.0  0.9874390732875937  0.8771122892722867  0.17559322786801584  1.0000
  H   H47       1.0  0.5125609266716434  0.3771122902415863  0.8244067728011262  1.0000
  H   H48       1.0  0.48743907347997834  0.3771122902415863  0.17559322739771988  1.0000
  H   H49       1.0  0.17955489283166207  0.29338230414008326  0.6801281826663791  1.0000
  H   H50       1.0  0.8204451073199597  0.29338230414008326  0.3198718175324668  1.0000
  H   H51       1.0  0.6795548926404582  0.7933823045628885  0.6801281816825245  1.0000
  H   H52       1.0  0.3204451071661612  0.7933823045628885  0.31987181852398827  1.0000
  H   H53       1.0  0.8204451073199597  0.7066176953134223  0.3198718175324668  1.0000
  H   H54       1.0  0.17955489283166207  0.7066176953134223  0.6801281826663791  1.0000
  H   H55       1.0  0.3204451071661612  0.20661769489061707  0.31987181852398827  1.0000
  H   H56       1.0  0.6795548926404582  0.20661769489061707  0.6801281816825245  1.0000
  H   H57       1.0  0.198472519292615  0.1709828149123717  0.46749495316042267  1.0000
  H   H58       1.0  0.8015274808590067  0.1709828149123717  0.5325050470384234  1.0000
  H   H59       1.0  0.6984725194464134  0.670982813943072  0.46749495216890125  1.0000
  H   H60       1.0  0.30152748070638924  0.670982813943072  0.5325050465757942  1.0000
  H   H61       1.0  0.8015274808590067  0.8290171859332388  0.5325050470384234  1.0000
  H   H62       1.0  0.198472519292615  0.8290171859332388  0.46749495316042267  1.0000
  H   H63       1.0  0.30152748070638924  0.3290171855104336  0.5325050465757942  1.0000
  H   H64       1.0  0.6984725194464134  0.3290171855104336  0.46749495216890125  1.0000
  H   H65       1.0  0.2335582541863048  0.1686375955501321  0.6828527533145163  1.0000
  H   H66       1.0  0.7664417456203146  0.1686375955501321  0.3171472468919966  1.0000
  H   H67       1.0  0.7335582543389222  0.6686375959729374  0.6828527537771455  1.0000
  H   H68       1.0  0.2664417458126994  0.6686375959729374  0.3171472464217006  1.0000
  H   H69       1.0  0.7664417456203146  0.8313624039033735  0.3171472468919966  1.0000
  H   H70       1.0  0.2335582541863048  0.8313624039033735  0.6828527533145163  1.0000
  H   H71       1.0  0.2664417458126994  0.33136240348056817  0.3171472464217006  1.0000
  H   H72       1.0  0.7335582543389222  0.33136240348056817  0.6828527537771455  1.0000
  H   H73       1.0  0.15963996927551305  0.1264478404218848  0.9736061811986129  1.0000
  H   H74       1.0  0.8403600308761086  0.1264478404218848  0.026393819000233208  1.0000
  H   H75       1.0  0.6596399690831283  0.6264478408446901  0.9736061816689088  1.0000
  H   H76       1.0  0.34036003072349114  0.6264478408446901  0.026393818537604093  1.0000
  H   H77       1.0  0.8403600308761086  0.8735521590316208  0.026393819000233208  1.0000
  H   H78       1.0  0.15963996927551305  0.8735521590316208  0.9736061811986129  1.0000
  H   H79       1.0  0.34036003072349114  0.37355216000092045  0.026393818537604093  1.0000
  H   H80       1.0  0.6596399690831283  0.37355216000092045  0.9736061816689088  1.0000
  H   H81       1.0  0.21288728768048304  0.0  0.9579257495440926  1.0000
  H   H82       1.0  0.7871127124711387  0.0  0.04207425065475349  1.0000
  H   H83       1.0  0.7128872874880983  0.5000000004228052  0.9579257500143885  1.0000
  H   H84       1.0  0.2871127123185212  0.5000000004228052  0.04207425019212438  1.0000
  C   C1        1.0  0.4642316186260613  0.0  0.3665421889792602  1.0000
  C   C2        1.0  0.5357683815255604  0.0  0.6334578112195859  1.0000
  C   C3        1.0  0.9642316184348574  0.5000000004228052  0.3665421879954056  1.0000
  C   C4        1.0  0.03576838137294293  0.5000000004228052  0.6334578107569567  1.0000
  C   C5        1.0  0.5099729445129477  0.0  0.30105230984654474  1.0000
  C   C6        1.0  0.49002705563867405  0.0  0.6989476903523013  1.0000
  C   C7        1.0  0.009972944360330228  0.5000000004228052  0.3010523093839157  1.0000
  C   C8        1.0  0.9900270557912915  0.5000000004228052  0.6989476908149304  1.0000
  C   C9        1.0  0.4539262462583675  0.0  0.5653829804707406  1.0000
  C   C10       1.0  0.5460737538932542  0.0  0.43461701972810535  1.0000
  C   C11       1.0  0.953926246410985  0.5000000004228052  0.5653829809333698  1.0000
  C   C12       1.0  0.04607375374063668  0.5000000004228052  0.4346170192654762  1.0000
  C   C13       1.0  0.1240122695294869  0.0  0.6374431385024549  1.0000
  C   C14       1.0  0.8759877302771325  0.0  0.36255686170405793  1.0000
  C   C15       1.0  0.6240122696832853  0.5000000004228052  0.6374431375109336  1.0000
  C   C16       1.0  0.37598773046833645  0.5000000004228052  0.36255686268791254  1.0000
  C   C17       1.0  0.1163247811136086  0.0  0.4194653675679844  1.0000
  C   C18       1.0  0.8836752186930109  0.0  0.5805346326385284  1.0000
  C   C19       1.0  0.616324781266226  0.5000000004228052  0.4194653680306135  1.0000
  C   C20       1.0  0.3836752188853957  0.5000000004228052  0.5805346321682325  1.0000
  C   C21       1.0  0.06456887317623078  0.0  0.3773620860780477  1.0000
  C   C22       1.0  0.935431126975391  0.0  0.6226379141207984  1.0000
  C   C23       1.0  0.564568872983846  0.5000000004228052  0.37736208654834374  1.0000
  C   C24       1.0  0.4354311268227735  0.5000000004228052  0.6226379136581692  1.0000
  C   C25       1.0  0.055328374921153736  0.0  0.15953295545363072  1.0000
  C   C26       1.0  0.9446716252304679  0.0  0.8404670447452153  1.0000
  C   C27       1.0  0.555328374728769  0.5000000004228052  0.1595329559239267  1.0000
  C   C28       1.0  0.44467162507785046  0.5000000004228052  0.8404670442825861  1.0000
  C   C29       1.0  0.004206289829645013  0.0  0.10943451118400943  1.0000
  C   C30       1.0  0.9957937099769744  0.0  0.8905654890225034  1.0000
  C   C31       1.0  0.5042062899834434  0.5000000004228052  0.10943451019248797  1.0000
  C   C32       1.0  0.4957937101681783  0.5000000004228052  0.8905654900063581  1.0000
  C   C33       1.0  0.19830221025845593  0.1709638725402081  0.6264863249336656  1.0000
  C   C34       1.0  0.8016977898931658  0.1709638725402081  0.3735136752651804  1.0000
  C   C35       1.0  0.6983022104110733  0.6709638715709084  0.6264863253962946  1.0000
  C   C36       1.0  0.3016977897405483  0.6709638715709084  0.3735136748025513  1.0000
  C   C37       1.0  0.8016977898931658  0.8290361283054024  0.3735136752651804  1.0000
  C   C38       1.0  0.19830221025845593  0.8290361283054024  0.6264863249336656  1.0000
  C   C39       1.0  0.3016977897405483  0.3290361278825971  0.3735136748025513  1.0000
  C   C40       1.0  0.6983022104110733  0.3290361278825971  0.6264863253962946  1.0000
  C   C41       1.0  0.17631684632023564  0.0  0.9180814672140619  1.0000
  C   C42       1.0  0.823683153832567  0.0  0.08191853153063348  1.0000
  C   C43       1.0  0.6763168461278508  0.5000000004228052  0.9180814676843579  1.0000
  C   C44       1.0  0.3236831536787686  0.5000000004228052  0.0819185325221549  1.0000
  N   N1        1.0  0.1741689984291215  0.0  0.6998870908953099  1.0000
  N   N2        1.0  0.825831001723681  0.0  0.30011290784938555  1.0000
  N   N3        1.0  0.6741689982367368  0.5000000004228052  0.6998870913656058  1.0000
  N   N4        1.0  0.3258310015698827  0.5000000004228052  0.300112908840907  1.0000
  I   I1        1.0  0.40968613602577614  0.0  0.15876900786260184  1.0000
  I   I2        1.0  0.5903138641258455  0.0  0.8412309923362442  1.0000
  I   I3        1.0  0.9096861358333914  0.5000000004228052  0.15876900833289778  1.0000
  I   I4        1.0  0.09031386397322806  0.5000000004228052  0.841230991873615  1.0000
  I   I5        1.0  0.32137695522438603  0.0  0.8248336197566113  1.0000
  I   I6        1.0  0.6786230449284166  0.0  0.17516637898808418  1.0000
  I   I7        1.0  0.8213769553770035  0.5000000004228052  0.8248336202192403  1.0000
  I   I8        1.0  0.17862304477461827  0.5000000004228052  0.17516637997960563  1.0000
