data_image0
_chemical_formula_structural       H84B6C48F6
_chemical_formula_sum              "H84 B6 C48 F6"
_cell_length_a       10.857205100788144
_cell_length_b       11.333055163578036
_cell_length_c       11.558641884728296
_cell_angle_alpha    59.4206973323886
_cell_angle_beta     81.75880567853743
_cell_angle_gamma    79.97597705067915

_space_group_name_H-M_alt    "P 1"
_space_group_IT_number       1

loop_
  _space_group_symop_operation_xyz
  'x, y, z'

loop_
  _atom_site_type_symbol
  _atom_site_label
  _atom_site_symmetry_multiplicity
  _atom_site_fract_x
  _atom_site_fract_y
  _atom_site_fract_z
  _atom_site_occupancy
  H   H1        1.0  0.16540004209863282  0.9462935973811711  0.06650867278579402  1.0000
  H   H2        1.0  0.8345999577432343  0.05370640229299521  0.9334913273700417  1.0000
  H   H3        1.0  0.20637493454863698  0.7578260459275706  0.30539011371098196  1.0000
  H   H4        1.0  0.793625065362349  0.24217395425498947  0.6946098854378844  1.0000
  H   H5        1.0  0.05582504695926812  0.850954219370559  0.28462295672072274  1.0000
  H   H6        1.0  0.9441749528825989  0.1490457803036072  0.7153770434351131  1.0000
  H   H7        1.0  0.2714830485553328  0.8552428394111808  0.4239579587419058  1.0000
  H   H8        1.0  0.7285169511227118  0.1447571611613097  0.5760420414094468  1.0000
  H   H9        1.0  0.11853363096154876  0.8202529520152891  0.48779519979513264  1.0000
  H   H10       1.0  0.8814663696367604  0.17974704855414111  0.5122048003647681  1.0000
  H   H11       1.0  0.1742195000018407  0.05260788971955269  0.4391610139422538  1.0000
  H   H12       1.0  0.8257804998400265  0.9473921099546133  0.5608389862135821  1.0000
  H   H13       1.0  0.03303891380636028  0.05441703964521108  0.3801803417782118  1.0000
  H   H14       1.0  0.9669610869557717  0.9455829600258946  0.6198196583861724  1.0000
  H   H15       1.0  0.12509840359276383  0.25098676427736993  0.2064836048576175  1.0000
  H   H16       1.0  0.8749015971693681  0.7490132353937358  0.7935163953067667  1.0000
  H   H17       1.0  0.35175896205555784  0.18379010393369394  0.2589675776398784  1.0000
  H   H18       1.0  0.6482410378554281  0.8162098962488664  0.741032421508988  1.0000
  H   H19       1.0  0.3275342033912273  0.2534299026502172  0.08760723506713852  1.0000
  H   H20       1.0  0.6724657964506399  0.7465700970239492  0.9123927650886974  1.0000
  H   H21       1.0  0.40454121216121575  0.9522046164667606  0.2931041307024602  1.0000
  H   H22       1.0  0.5954587886009163  0.04779538320434525  0.7068958694619238  1.0000
  H   H23       1.0  0.4881757096834665  0.060215200812574574  0.1455330208853237  1.0000
  H   H24       1.0  0.5118242910786654  0.9397847988585312  0.8544669792790603  1.0000
  H   H25       1.0  0.35558389067107077  0.051856683967522944  0.0017696668965899826  1.0000
  H   H26       1.0  0.6444161090069738  0.9481433166049674  0.9982303332547626  1.0000
  H   H27       1.0  0.3898896702989704  0.8805993498162331  0.13116209721770603  1.0000
  H   H28       1.0  0.6101103293790741  0.11940065075625765  0.8688379029336466  1.0000
  H   H29       1.0  0.9672690710847361  0.37793025092337057  0.042594052029518756  1.0000
  H   H30       1.0  0.032730929677395784  0.6220697487477351  0.9574059481348652  1.0000
  H   H31       1.0  0.8612791811824959  0.4139408723882935  0.8543824142169975  1.0000
  H   H32       1.0  0.13872081957963583  0.5860591272828122  0.14561758594738652  1.0000
  H   H33       1.0  0.8291642233123375  0.5633159571700936  0.8696993605109525  1.0000
  H   H34       1.0  0.1708357763657069  0.4366840434023969  0.13030063964040012  1.0000
  H   H35       1.0  0.6428376238605791  0.4975638682147172  0.8158854444927749  1.0000
  H   H36       1.0  0.357162375981288  0.502436131459449  0.184114555663061  1.0000
  H   H37       1.0  0.6155724272797037  0.5179533364094632  0.9575800736061382  1.0000
  H   H38       1.0  0.384427573482428  0.48204666326164264  0.04241992655824593  1.0000
  H   H39       1.0  0.6601855835494629  0.25200392898246393  0.9435180332613478  1.0000
  H   H40       1.0  0.3398144162924041  0.7479960706917022  0.056481966894488075  1.0000
  H   H41       1.0  0.5269370907816463  0.3111154414787497  0.015076333031173707  1.0000
  H   H42       1.0  0.4730629090602209  0.6888845581954165  0.9849236671246621  1.0000
  H   H43       1.0  0.6640451360209615  0.10795724207506693  0.183827867953984  1.0000
  H   H44       1.0  0.33595486474117037  0.892042757596039  0.8161721322104001  1.0000
  H   H45       1.0  0.6732386330500832  0.18225709367774448  0.34401661856837323  1.0000
  H   H46       1.0  0.326761366791784  0.8177429059964219  0.6559833815874626  1.0000
  H   H47       1.0  0.5344474749815792  0.26574581387299867  0.26006930273837736  1.0000
  H   H48       1.0  0.4655525246964654  0.734254186699492  0.7399306974129751  1.0000
  H   H49       1.0  0.6561274638571757  0.41384565471404205  0.3010680687699959  1.0000
  H   H50       1.0  0.3438725359846914  0.5861543449601241  0.6989319313858399  1.0000
  H   H51       1.0  0.6116466379207537  0.48628008317482335  0.13732908731017332  1.0000
  H   H52       1.0  0.3883533619211134  0.5137199164993428  0.8626709128456627  1.0000
  H   H53       1.0  0.8244064493736992  0.5332908481744921  0.11384773046649511  1.0000
  H   H54       1.0  0.17559355030434537  0.4667091523979986  0.8861522696848575  1.0000
  H   H55       1.0  0.8712839521140713  0.36771690832795806  0.24595234531721988  1.0000
  H   H56       1.0  0.12871604864806044  0.6322830913431478  0.7540476548471642  1.0000
  H   H57       1.0  0.2689721661964874  0.34621210038687183  0.7692094728125889  1.0000
  H   H58       1.0  0.7310278345656444  0.6537878992842339  0.23079052735179514  1.0000
  H   H59       1.0  0.46730204852437346  0.2428257941943965  0.721463475494983  1.0000
  H   H60       1.0  0.5326979513174936  0.7571742054797697  0.2785365246608529  1.0000
  H   H61       1.0  0.4582212625319332  0.42052730763402213  0.6044424906353475  1.0000
  H   H62       1.0  0.5417787371461115  0.5794726929384685  0.3955575095160051  1.0000
  H   H63       1.0  0.5498938898673064  0.25748294342691513  0.5132263654904181  1.0000
  H   H64       1.0  0.4501061099745607  0.7425170562472511  0.4867736346654178  1.0000
  H   H65       1.0  0.4336514297384428  0.3861425422310731  0.41993445037838006  1.0000
  H   H66       1.0  0.5663485699396018  0.6138574583414175  0.5800655497729725  1.0000
  H   H67       1.0  0.41720800656894047  0.0782803572009212  0.6066430512699876  1.0000
  H   H68       1.0  0.5827919932729265  0.9217196424732452  0.39335694888584816  1.0000
  H   H69       1.0  0.3895982734221692  0.1780786149676853  0.43461054661178583  1.0000
  H   H70       1.0  0.6104017264888169  0.821921385214875  0.5653894525370805  1.0000
  H   H71       1.0  0.19490205730385537  0.10384688421363449  0.5877789104884706  1.0000
  H   H72       1.0  0.8050979425380118  0.8961531154605319  0.41222108966736515  1.0000
  H   H73       1.0  0.05722058051770086  0.3163603579792761  0.49296054578987314  1.0000
  H   H74       1.0  0.9427794193241662  0.6836396416948902  0.5070394543659628  1.0000
  H   H75       1.0  0.17164870780537939  0.3268357640510955  0.36497767268450093  1.0000
  H   H76       1.0  0.828351291872665  0.6731642365213952  0.6350223274668516  1.0000
  H   H77       1.0  0.11166397173779158  0.5455869261992153  0.383407963623177  1.0000
  H   H78       1.0  0.8883360281040755  0.4544130734749508  0.6165920365326589  1.0000
  H   H79       1.0  0.2719127368568731  0.4938988773652555  0.3741184523455536  1.0000
  H   H80       1.0  0.7280872630541128  0.5061011228173047  0.6258815468033128  1.0000
  H   H81       1.0  0.23804776155259572  0.5615300621883866  0.5431039586219278  1.0000
  H   H82       1.0  0.7619522382892714  0.43846993748577945  0.456896041533908  1.0000
  H   H83       1.0  0.10422518087972314  0.47478123089342456  0.617215627076631  1.0000
  H   H84       1.0  0.895774818962144  0.5252187687807418  0.3827843730792048  1.0000
  B   B1        1.0  0.14253083839062866  0.11849697984059619  0.11203953726326175  1.0000
  B   B2        1.0  0.8574691614512383  0.88150301983357  0.8879604628925741  1.0000
  B   B3        1.0  0.8299748251200904  0.2226408023643663  0.12645932842768293  1.0000
  B   B4        1.0  0.17002517455795413  0.7773591982081243  0.8735406717236696  1.0000
  B   B5        1.0  0.22813658712880816  0.20696096863533406  0.6992881276054977  1.0000
  B   B6        1.0  0.7718634127130588  0.7930390310388322  0.300711872550338  1.0000
  C   C1        1.0  0.19468500771623418  0.9698505233291523  0.1390038866379887  1.0000
  C   C2        1.0  0.8053149930458977  0.03014947634195348  0.8609961135263954  1.0000
  C   C3        1.0  0.1556570619857968  0.8595233517760604  0.2830432580437757  1.0000
  C   C4        1.0  0.8443429386125126  0.1404766487933697  0.716956742116125  1.0000
  C   C5        1.0  0.1736170981224023  0.8876452822164861  0.39627373110360875  1.0000
  C   C6        1.0  0.8263829017194648  0.11235471745768003  0.6037262690522271  1.0000
  C   C7        1.0  0.13554582533171133  0.037902575366043745  0.364856894442803  1.0000
  C   C8        1.0  0.8644541745101559  0.9620974243081224  0.6351431057130329  1.0000
  C   C9        1.0  0.17204871896973392  0.15048725996938242  0.2210958197383822  1.0000
  C   C10       1.0  0.8279512808721331  0.8495127397047838  0.7789041804174537  1.0000
  C   C11       1.0  0.31510926031209524  0.16226545112157564  0.18819960107321837  1.0000
  C   C12       1.0  0.6848907395297716  0.8377345485525908  0.8118003990826175  1.0000
  C   C13       1.0  0.39293637549449706  0.034923750689799894  0.1887758273591037  1.0000
  C   C14       1.0  0.6070636252676347  0.965076248981306  0.8112241728052803  1.0000
  C   C15       1.0  0.33837715740331226  0.9816485126413866  0.11050907049043833  1.0000
  C   C16       1.0  0.6616228425076738  0.01835148754117367  0.8894909286584278  1.0000
  C   C17       1.0  0.8659019143461625  0.37215589802304616  0.057867137690331284  1.0000
  C   C18       1.0  0.1340980854957047  0.62784410165112  0.9421328624655045  1.0000
  C   C19       1.0  0.8100574434740776  0.4554287385252516  0.918205820877916  1.0000
  C   C20       1.0  0.1899425563677895  0.5445712611489147  0.08179417927791974  1.0000
  C   C21       1.0  0.6692866048067662  0.4513678467460221  0.9201193798079162  1.0000
  C   C22       1.0  0.3307133951042199  0.5486321534365382  0.07988061934095006  1.0000
  C   C23       1.0  0.6300772448930543  0.30506930799024035  0.002414954619594559  1.0000
  C   C24       1.0  0.3699227558690775  0.6949306916808655  0.9975850455447894  1.0000
  C   C25       1.0  0.6862319066531116  0.21396068534194757  0.14143471743468886  1.0000
  C   C26       1.0  0.31376809318875537  0.7860393143322187  0.8585652827211471  1.0000
  C   C27       1.0  0.6372925005485041  0.2624860843581424  0.24591104812917844  1.0000
  C   C28       1.0  0.36270749929336304  0.7375139153160236  0.7540889520266575  1.0000
  C   C29       1.0  0.6743117036669465  0.40266801007453673  0.21080298364676678  1.0000
  C   C30       1.0  0.32568829617492046  0.5973319895996295  0.7891970165090691  1.0000
  C   C31       1.0  0.8120595973286069  0.4235503455911357  0.15911051719458244  1.0000
  C   C32       1.0  0.1879404023494376  0.576449654981355  0.8408894829567701  1.0000
  C   C33       1.0  0.27709349742625705  0.3393165995546898  0.67682528357381  1.0000
  C   C34       1.0  0.7229065022517874  0.6606834010178008  0.32317471657754265  1.0000
  C   C35       1.0  0.4186470950366538  0.32533651195854735  0.6325754177926356  1.0000
  C   C36       1.0  0.5813529048052133  0.6746634877156188  0.3674245823632003  1.0000
  C   C37       1.0  0.4488440914508717  0.2918210858428177  0.5173677341929706  1.0000
  C   C38       1.0  0.5511559093112602  0.708178913828288  0.4826322659714135  1.0000
  C   C39       1.0  0.3760062064463397  0.18047764346944498  0.5298600395839062  1.0000
  C   C40       1.0  0.6239937943157922  0.8195223562016608  0.4701399605804779  1.0000
  C   C41       1.0  0.23328780582118058  0.19607381103190072  0.5693297806070287  1.0000
  C   C42       1.0  0.766712193856864  0.8039261895405899  0.430670219544324  1.0000
  C   C43       1.0  0.1575273249872897  0.3258377655285956  0.4618511500829842  1.0000
  C   C44       1.0  0.8424726746907548  0.674162235043895  0.5381488500683684  1.0000
  C   C45       1.0  0.18623028140397277  0.4642044840304446  0.4401163295080515  1.0000
  C   C46       1.0  0.8137697184378944  0.5357955156437215  0.5598836706477844  1.0000
  C   C47       1.0  0.19861944308585755  0.4667254507492875  0.5698444116194155  1.0000
  C   C48       1.0  0.8013805565921869  0.5332745498232031  0.43015558853193714  1.0000
  F   F1        1.0  0.10937927512116377  0.22203229915311695  0.9882793455663557  1.0000
  F   F2        1.0  0.8906207247207033  0.7779677005210492  0.01172065458948019  1.0000
  F   F3        1.0  0.9138749447869806  0.10778700061395038  0.18353908103122044  1.0000
  F   F4        1.0  0.08612505604427022  0.8922129995655494  0.816460918126194  1.0000
  F   F5        1.0  0.19486125119465747  0.10439998090119819  0.8219440396809891  1.0000
  F   F6        1.0  0.8051387484833871  0.8956000196712925  0.1780559604703635  1.0000
