data_image0
_chemical_formula_structural       H46C16N2O12P4
_chemical_formula_sum              "H46 C16 N2 O12 P4"
_cell_length_a       8.852304092218292
_cell_length_b       8.936027809010755
_cell_length_c       9.187817172227772
_cell_angle_alpha    78.88315730719809
_cell_angle_beta     66.27720506863591
_cell_angle_gamma    79.33488870521582

_space_group_name_H-M_alt    "P 1"
_space_group_IT_number       1

loop_
  _space_group_symop_operation_xyz
  'x, y, z'

loop_
  _atom_site_type_symbol
  _atom_site_label
  _atom_site_symmetry_multiplicity
  _atom_site_fract_x
  _atom_site_fract_y
  _atom_site_fract_z
  _atom_site_occupancy
  H   H1        1.0  0.38275745670356454  0.2752651882840642  0.4070119523678053  1.0000
  H   H2        1.0  0.6172425427543928  0.724734812388848  0.5929880486120319  1.0000
  H   H3        1.0  0.38558180670185316  0.23683111206255122  0.7093720769282539  1.0000
  H   H4        1.0  0.6144181934432908  0.7631688876208055  0.2906279228541116  1.0000
  H   H5        1.0  0.2786534527562662  0.7619354619725437  0.6128748440809605  1.0000
  H   H6        1.0  0.7213465473888778  0.23806453771081315  0.38712515570140493  1.0000
  H   H7        1.0  0.2408312656086373  0.5369743906449529  0.014956915552107401  1.0000
  H   H8        1.0  0.7591687338493198  0.46302561002795933  0.9850430854277298  1.0000
  H   H9        1.0  0.3505190601095234  0.5320201039906347  0.14172463563625212  1.0000
  H   H10       1.0  0.6494809395620574  0.46797989554331654  0.8582753653453868  1.0000
  H   H11       1.0  0.15628550359005816  0.33724279248441186  0.2462100917715506  1.0000
  H   H12       1.0  0.8437144960815226  0.6627572070495393  0.7537899092100884  1.0000
  H   H13       1.0  0.9821080947086596  0.47775643522243055  0.26995200063130587  1.0000
  H   H14       1.0  0.017891904749297444  0.5222435654504816  0.7300480003485313  1.0000
  H   H15       1.0  0.10720121915463808  0.4670303595434422  0.3843636979751204  1.0000
  H   H16       1.0  0.8927987809905059  0.5329696401399147  0.615636301807245  1.0000
  H   H17       1.0  0.25186291932442684  0.9339704128225648  0.9834353299141292  1.0000
  H   H18       1.0  0.7481370806070935  0.06602958799975309  0.016564669866434505  1.0000
  H   H19       1.0  0.30683317304973334  0.7676711412070263  0.8875636645236713  1.0000
  H   H20       1.0  0.6931668270954108  0.23232885847633056  0.1124363352586941  1.0000
  H   H21       1.0  0.5560552597874264  0.8488863553963218  0.8702243448256083  1.0000
  H   H22       1.0  0.44394474035771764  0.15111364428703505  0.12977565495675716  1.0000
  H   H23       1.0  0.5306058949820383  0.6770265707251814  0.00557065279278654  1.0000
  H   H24       1.0  0.4693941051631058  0.3229734289581753  0.994429346989579  1.0000
  H   H25       1.0  0.4856942976518641  0.8556336594328813  0.07995619832494774  1.0000
  H   H26       1.0  0.5143057022796564  0.14436634138943644  0.9200438014556157  1.0000
  H   H27       1.0  0.92197614498576  0.7208113627612739  0.24816200545538583  1.0000
  H   H28       1.0  0.0780238551593843  0.279188636922083  0.7518379943269795  1.0000
  H   H29       1.0  0.9812068736904602  0.901788989720247  0.14522792059672174  1.0000
  H   H30       1.0  0.018793126454683607  0.09821100996310994  0.8547720791856437  1.0000
  H   H31       1.0  0.060377862810432725  0.8065789121429586  0.8799511874587694  1.0000
  H   H32       1.0  0.9396221373347114  0.19342108754039822  0.12004881232359593  1.0000
  H   H33       1.0  0.8525753124724182  0.7778165256764564  0.011368593581036276  1.0000
  H   H34       1.0  0.14742468767272598  0.2221834740069004  0.988631406201329  1.0000
  H   H35       1.0  0.010028971623943821  0.6210467802229942  0.9812498375617673  1.0000
  H   H36       1.0  0.9899710278340134  0.3789532204499181  0.01875016341806978  1.0000
  H   H37       1.0  0.08583740589425945  0.7091771472419629  0.39052158738924014  1.0000
  H   H38       1.0  0.914162594037261  0.2908228535803548  0.6094784123913234  1.0000
  H   H39       1.0  0.3025387886351708  0.7162148583111293  0.295738962409873  1.0000
  H   H40       1.0  0.6974612115099733  0.2837851413722275  0.7042610373724925  1.0000
  H   H41       1.0  0.24623289590826486  0.0031289007719895513  0.20648388261901454  1.0000
  H   H42       1.0  0.7537671037633159  0.9968710987619617  0.7935161183626245  1.0000
  H   H43       1.0  0.16672918161337655  0.951231498649641  0.4159166821633971  1.0000
  H   H44       1.0  0.8332708185317674  0.04876850103371579  0.5840833176189683  1.0000
  H   H45       1.0  0.02887362359208179  0.9915501953925813  0.31358033704353333  1.0000
  H   H46       1.0  0.9711263765530623  0.008449804290775622  0.686419662738832  1.0000
  C   C1        1.0  0.22809048881567642  0.5574943117130441  0.13352285570329686  1.0000
  C   C2        1.0  0.7719095113294675  0.44250568797031276  0.8664771440790685  1.0000
  C   C3        1.0  0.109307654029296  0.4571675426427176  0.26653774984590967  1.0000
  C   C4        1.0  0.8906923461158481  0.5428324570406392  0.7334622499364557  1.0000
  C   C5        1.0  0.3041424763305687  0.8130001175699629  0.9910384726422007  1.0000
  C   C6        1.0  0.6958575236009518  0.1869998832523549  0.00896152713836274  1.0000
  C   C7        1.0  0.47810841428831213  0.7968777073901513  0.9893064931624326  1.0000
  C   C8        1.0  0.5218915853832685  0.20312229214379995  0.010693507819206452  1.0000
  C   C9        1.0  0.00713456231900368  0.77834259800737  0.13693114735871503  1.0000
  C   C10       1.0  0.9928654378261406  0.22165740167598683  0.8630688524236504  1.0000
  C   C11       1.0  0.9839903760180887  0.7438684860978925  0.992772720894179  1.0000
  C   C12       1.0  0.016009624127055408  0.2561315135854643  0.007227278888186315  1.0000
  C   C13       1.0  0.18230421619852638  0.7688521153391731  0.29127477232921933  1.0000
  C   C14       1.0  0.8176957839466177  0.23114788434418376  0.7087252274531461  1.0000
  C   C15       1.0  0.15364168510562415  0.9388055224742167  0.30519197206169546  1.0000
  C   C16       1.0  0.846358314352333  0.06119447819869547  0.6948080289181416  1.0000
  N   N1        1.0  0.18011564733257243  0.7296309088706233  0.13824491660087773  1.0000
  N   N2        1.0  0.8198843528125715  0.2703690908127334  0.8617550831814876  1.0000
  O   O1        1.0  0.2609004744189109  0.925254126760487  0.6448085347115452  1.0000
  O   O2        1.0  0.7390995257262332  0.07474587292286984  0.3551914650708202  1.0000
  O   O3        1.0  0.3103684439665941  0.18024343350564467  0.4680122707538946  1.0000
  O   O4        1.0  0.6896315559649264  0.8197565673166731  0.5319877290266688  1.0000
  O   O5        1.0  0.4041390593591467  0.11369159620681012  0.707113201024646  1.0000
  O   O6        1.0  0.5958609405723738  0.8863084046155078  0.29288679875591744  1.0000
  O   O7        1.0  0.35152710026651035  0.3880511670197354  0.7303598843437127  1.0000
  O   O8        1.0  0.6484728996650101  0.6119488338025824  0.2696401154368509  1.0000
  O   O9        1.0  0.5300923578081186  0.6026384355823341  0.6795805635077604  1.0000
  O   O10       1.0  0.4699076423370254  0.39736156410102275  0.320419436274605  1.0000
  O   O11       1.0  0.277012040980879  0.6503276495919619  0.5998091475027308  1.0000
  O   O12       1.0  0.7229879591642651  0.3496723500913949  0.4001908522796345  1.0000
  P   P1        1.0  0.37551512248142155  0.04867152589427324  0.5750629070166855  1.0000
  P   P2        1.0  0.6244848776637224  0.9513284737890836  0.42493709276567987  1.0000
  P   P3        1.0  0.42462349451240955  0.5297572915763976  0.6218665429146291  1.0000
  P   P4        1.0  0.5753765056327346  0.47024270810695906  0.37813345686773625  1.0000
