data_image0
_chemical_formula_structural       H28C32N8O4Br8I4
_chemical_formula_sum              "H28 C32 N8 O4 Br8 I4"
_cell_length_a       7.281964888085039
_cell_length_b       11.640106921369602
_cell_length_c       13.714137407575075
_cell_angle_alpha    90.0
_cell_angle_beta     95.54470975696823
_cell_angle_gamma    90.0

_space_group_name_H-M_alt    "P 1"
_space_group_IT_number       1

loop_
  _space_group_symop_operation_xyz
  'x, y, z'

loop_
  _atom_site_type_symbol
  _atom_site_label
  _atom_site_symmetry_multiplicity
  _atom_site_fract_x
  _atom_site_fract_y
  _atom_site_fract_z
  _atom_site_occupancy
  H   H1        1.0  0.3295078269233295  0.7559106818723882  0.8044800668566946  1.0000
  H   H2        1.0  0.17049217316828372  0.2559106819312193  0.6955199331112304  1.0000
  H   H3        1.0  0.6704921734736776  0.2440893180099496  0.19551993268289547  1.0000
  H   H4        1.0  0.8295078273607946  0.7440893179511185  0.30448006716096176  1.0000
  H   H5        1.0  0.9905777482694921  0.7551812976788106  0.8307912990390813  1.0000
  H   H6        1.0  0.5094222517053665  0.2551812977376417  0.669208700636274  1.0000
  H   H7        1.0  0.009422252127514994  0.24481870306262582  0.16920870050050874  1.0000
  H   H8        1.0  0.4905777474503364  0.7448187030037947  0.33079129963525655  1.0000
  H   H9        1.0  0.37436121670281886  0.41623114914050374  0.9008072564374358  1.0000
  H   H10       1.0  0.12563878338879444  0.9162311490816726  0.5991927435304891  1.0000
  H   H11       1.0  0.6256387823208127  0.583768850741834  0.09919274310149281  1.0000
  H   H12       1.0  0.874361217140284  0.08376885080066516  0.400807256741703  1.0000
  H   H13       1.0  0.030772290842766576  0.4151183810115254  0.9223400134671407  1.0000
  H   H14       1.0  0.4692277092488467  0.9151183818117928  0.5776599865007842  1.0000
  H   H15       1.0  0.9692277095542406  0.5848816188708124  0.07765998607244935  1.0000
  H   H16       1.0  0.5307722899068562  0.08488161892964348  0.42234001377074637  1.0000
  H   H17       1.0  0.618969922977072  0.5024295789983922  0.8576554177991949  1.0000
  H   H18       1.0  0.8810300771298578  0.0024295790572233375  0.6423445826087624  1.0000
  H   H19       1.0  0.38103007755200646  0.4975704208839455  0.14234458247299708  1.0000
  H   H20       1.0  0.11896992202584494  0.9975704208251144  0.3576554176627682  1.0000
  H   H21       1.0  0.6293869297488206  0.6523881937938838  0.8877258865213085  1.0000
  H   H22       1.0  0.8706130702260378  0.15238819385271496  0.6122741131540468  1.0000
  H   H23       1.0  0.37061306927481097  0.3476118060884539  0.1122741130176201  1.0000
  H   H24       1.0  0.12938693030304046  0.8476118060296228  0.3877258871181452  1.0000
  H   H25       1.0  0.5792044912407537  0.608635587959566  0.7630321572158444  1.0000
  H   H26       1.0  0.9207955088661761  0.10863558801839704  0.736967843192113  1.0000
  H   H27       1.0  0.42079550791494924  0.3913644119227718  0.23696784305568627  1.0000
  H   H28       1.0  0.07920449166290225  0.8913644118639407  0.26303215708007904  1.0000
  C   C1        1.0  0.09930285817732803  0.5010303976927549  0.5962478066538694  1.0000
  C   C2        1.0  0.4006971405409097  0.0010303977515860108  0.903752193313394  1.0000
  C   C3        1.0  0.9006971409783747  0.4989696021895828  0.4037521936176612  1.0000
  C   C4        1.0  0.5993028586147932  0.9989696021307516  0.09624780695813663  1.0000
  C   C5        1.0  0.913321630818037  0.44807593909853144  0.5785149390445445  1.0000
  C   C6        1.0  0.5866783692888928  0.9480759390397003  0.9214850613634128  1.0000
  C   C7        1.0  0.08667836971104154  0.5519240607838063  0.4214850612276475  1.0000
  C   C8        1.0  0.41332162986680987  0.051924060842637405  0.0785149389081178  1.0000
  C   C9        1.0  0.827804824013303  0.4376821445382866  0.4868613145728794  1.0000
  C   C10       1.0  0.6721951768211692  0.9376821444794554  0.01313868527097773  1.0000
  C   C11       1.0  0.17219517651577534  0.5623178553440512  0.5131386856993126  1.0000
  C   C12       1.0  0.3278048235758379  0.06231785540288228  0.9868613142686122  1.0000
  C   C13       1.0  0.2608287338155813  0.6811103835691529  0.831988725360494  1.0000
  C   C14       1.0  0.2391712664081032  0.18111038362798398  0.6680112753400328  1.0000
  C   C15       1.0  0.7391712653401216  0.31888961631318485  0.16801127491103665  1.0000
  C   C16       1.0  0.7608287341209751  0.8188896171134523  0.3319887249321591  1.0000
  C   C17       1.0  0.07438072796280647  0.678727237934204  0.8462625223404248  1.0000
  C   C18       1.0  0.4256192721288068  0.1787272379930351  0.6537374776275002  1.0000
  C   C19       1.0  0.925619272566272  0.32127276194813376  0.15373747793176729  1.0000
  C   C20       1.0  0.5743807268948249  0.8212727618893026  0.34626252191142853  1.0000
  C   C21       1.0  0.28498032941037565  0.4911128444623747  0.886417364134039  1.0000
  C   C22       1.0  0.2150196706812376  0.9911128444035436  0.6135826358338858  1.0000
  C   C23       1.0  0.7150196711187028  0.508887155419963  0.11358263613815299  1.0000
  C   C24       1.0  0.7849803298478408  0.008887155478794187  0.3864173644383062  1.0000
  C   C25       1.0  0.09734790744834154  0.4924670957683537  0.8977040931107284  1.0000
  C   C26       1.0  0.4026520926432717  0.9924670965686212  0.6022959068571966  1.0000
  C   C27       1.0  0.9026520917073614  0.5075329041139841  0.10229590716080231  1.0000
  C   C28       1.0  0.5973479078858067  0.007532904172815186  0.39770409341499546  1.0000
  C   C29       1.0  0.5612217045069411  0.5872652765285493  0.839390825032976  1.0000
  C   C30       1.0  0.9387782955999887  0.08726527572828183  0.6606091753749813  1.0000
  C   C31       1.0  0.4387782960221373  0.412734724212887  0.16060917523921606  1.0000
  C   C32       1.0  0.06122170492908961  0.9127347241540559  0.3393908248972107  1.0000
  N   N1        1.0  0.3633617199814994  0.5862648157871947  0.8525538758600409  1.0000
  N   N2        1.0  0.1366382801101138  0.08626481584602588  0.6474461241078839  1.0000
  N   N3        1.0  0.6366382791742033  0.413735184095143  0.14744612441148972  1.0000
  N   N4        1.0  0.8633617202868934  0.9137351840363119  0.35255387543170613  1.0000
  N   N5        1.0  0.9917360235918845  0.5853689657687678  0.8786082516699107  1.0000
  N   N6        1.0  0.508263976382974  0.085368965827599  0.6213917480054446  1.0000
  N   N7        1.0  0.008263975431747134  0.41463103411356983  0.12139174786901782  1.0000
  N   N8        1.0  0.49173602401403305  0.9146310349138373  0.37860825153414546  1.0000
  O   O1        1.0  0.19569740950219994  0.4866835432241406  0.6743798928612782  1.0000
  O   O2        1.0  0.30430259058941334  0.9866835431653094  0.8256201071066468  1.0000
  O   O3        1.0  0.8043025896535029  0.5133164566581971  0.32562010741025244  1.0000
  O   O4        1.0  0.6956974099396651  0.013316456717028313  0.17437989316554536  1.0000
  Br  Br1       1.0  0.6013742522917332  0.35906006948501734  0.4566263735647719  1.0000
  Br  Br2       1.0  0.8986257471693635  0.8590600694261862  0.0433736262784238  1.0000
  Br  Br3       1.0  0.3986257482373451  0.6409399303973203  0.54337362670742  1.0000
  Br  Br4       1.0  0.10137425185426813  0.14093993045615155  0.9566263732605048  1.0000
  Br  Br5       1.0  0.8195862037143974  0.38515328684562405  0.6911734770410233  1.0000
  Br  Br6       1.0  0.6804137963925323  0.885153286786793  0.808826523366934  1.0000
  Br  Br7       1.0  0.18041379681468098  0.6148467130367137  0.30882652323116866  1.0000
  Br  Br8       1.0  0.319586204136546  0.11484671309554481  0.19117347690525802  1.0000
  I   I1        1.0  0.16835579412948515  0.24084864502860884  0.3992985033903714  1.0000
  I   I2        1.0  0.3316442068217418  0.7408486449697778  0.1007014967460553  1.0000
  I   I3        1.0  0.8316442063995932  0.759151354853729  0.6007014968818206  1.0000
  I   I4        1.0  0.6683557937073367  0.25915135491256003  0.8992985035261367  1.0000
