data_image0
_chemical_formula_structural       H20C22N2O6Br4I2
_chemical_formula_sum              "H20 C22 N2 O6 Br4 I2"
_cell_length_a       7.725849636332115
_cell_length_b       8.233334022592071
_cell_length_c       11.552442658747507
_cell_angle_alpha    96.68270206189513
_cell_angle_beta     100.4880000690285
_cell_angle_gamma    94.61179822639309

_space_group_name_H-M_alt    "P 1"
_space_group_IT_number       1

loop_
  _space_group_symop_operation_xyz
  'x, y, z'

loop_
  _atom_site_type_symbol
  _atom_site_label
  _atom_site_symmetry_multiplicity
  _atom_site_fract_x
  _atom_site_fract_y
  _atom_site_fract_z
  _atom_site_occupancy
  H   H1        1.0  0.14304373905658407  0.9590734168625012  0.160275574719431  1.0000
  H   H2        1.0  0.8569562613147846  0.040926583433562064  0.8397244255107869  1.0000
  H   H3        1.0  0.20338470331039046  0.995700606972367  0.38438435210967287  1.0000
  H   H4        1.0  0.7966152970609782  0.004299393323696293  0.6156156481205449  1.0000
  H   H5        1.0  0.4776934235906034  0.5577039665304916  0.3678042209158132  1.0000
  H   H6        1.0  0.5223065752306572  0.44229603358302266  0.6321957784248169  1.0000
  H   H7        1.0  0.41158720430727364  0.5421935470883994  0.14463636794840495  1.0000
  H   H8        1.0  0.5884127947682773  0.45780645319376095  0.855363632280515  1.0000
  H   H9        1.0  0.15608502933016702  0.8265390348509432  0.9888846288114443  1.0000
  H   H10       1.0  0.8439149710412017  0.17346096544512019  0.011115371418773407  1.0000
  H   H11       1.0  0.15591596492539955  0.607919688225161  0.9877798066215654  1.0000
  H   H12       1.0  0.8440840341501513  0.3920803120569993  0.012220193607354563  1.0000
  H   H13       1.0  0.3574171563310957  0.7320343003359273  0.9844218448515196  1.0000
  H   H14       1.0  0.6425828427444552  0.2679656999462331  0.015578155377400397  1.0000
  H   H15       1.0  0.317239988240482  0.050804716812476725  0.7363584547763354  1.0000
  H   H16       1.0  0.6827600121308867  0.9491952834835865  0.2636415454538823  1.0000
  H   H17       1.0  0.4757927831189611  0.9001113373900987  0.7506625684914634  1.0000
  H   H18       1.0  0.5242072172524076  0.09988866290596447  0.24933743173875436  1.0000
  H   H19       1.0  0.244219766854983  0.835471723023929  0.7241675240001848  1.0000
  H   H20       1.0  0.7557802322205679  0.16452827725823127  0.27583247622873525  1.0000
  C   C1        1.0  0.10697565431035796  0.3618026180942762  0.5063053878411531  1.0000
  C   C2        1.0  0.8930243458067203  0.6381973820331409  0.49369461150077476  1.0000
  C   C3        1.0  0.0385790323995718  0.42065530509962  0.3916091175398185  1.0000
  C   C4        1.0  0.961420967971797  0.5793446951964434  0.6083908826903993  1.0000
  C   C5        1.0  0.9368091865889039  0.5473288851305715  0.38534260758984573  1.0000
  C   C6        1.0  0.06319081343918523  0.45267111377899233  0.6146573917552305  1.0000
  C   C7        1.0  0.21720951455038984  0.8760318103031318  0.21179653168825205  1.0000
  C   C8        1.0  0.7827904858209789  0.12396818999293141  0.7882034685419657  1.0000
  C   C9        1.0  0.2508769787371075  0.8932651096753612  0.3347923672170528  1.0000
  C   C10       1.0  0.7491230202494542  0.1067348893889459  0.6652076330150155  1.0000
  C   C11       1.0  0.3430508509634496  0.7765555058308804  0.3923131818016767  1.0000
  C   C12       1.0  0.6569491481121014  0.22344449445127992  0.6076868184272434  1.0000
  C   C13       1.0  0.4062274632048386  0.6502502336315523  0.3251631812384833  1.0000
  C   C14       1.0  0.5937725371665301  0.3497497666645109  0.6748368189917344  1.0000
  C   C15       1.0  0.3720093981315956  0.6405662866021725  0.20273976748786976  1.0000
  C   C16       1.0  0.6279906009439555  0.35943371367998783  0.7972602327410503  1.0000
  C   C17       1.0  0.232833165212678  0.7279522841592828  0.017860137807493605  1.0000
  C   C18       1.0  0.7671668351586909  0.2720477161367806  0.9821398624227242  1.0000
  C   C19       1.0  0.3669393171439844  0.7758174199513906  0.5235311655827709  1.0000
  C   C20       1.0  0.6330606819315666  0.22418258033076968  0.47646883464614914  1.0000
  C   C21       1.0  0.34474175033969956  0.9262694059426456  0.7066882730073544  1.0000
  C   C22       1.0  0.6552582487358515  0.0737305943395148  0.2933117272215657  1.0000
  N   N1        1.0  0.27614419212367164  0.750495672551871  0.14830011875413118  1.0000
  N   N2        1.0  0.723855808158708  0.24950432652633894  0.8516998814792349  1.0000
  O   O1        1.0  0.19238883038441915  0.24197819309502577  0.5116208061027779  1.0000
  O   O2        1.0  0.8076111699869497  0.7580218072010375  0.48837919412743985  1.0000
  O   O3        1.0  0.3356278390170285  0.9190694023872626  0.5795520011156816  1.0000
  O   O4        1.0  0.6643721613543403  0.08093059790880075  0.4204479991145362  1.0000
  O   O5        1.0  0.40437835517647164  0.6554536000686638  0.572259268519872  1.0000
  O   O6        1.0  0.5956216451948971  0.3445464002273994  0.4277407317103458  1.0000
  Br  Br1       1.0  0.10704990069886933  0.3117725709823863  0.255839224987378  1.0000
  Br  Br2       1.0  0.8929500983766817  0.688227429299774  0.744160775241542  1.0000
  Br  Br3       1.0  0.8464085498560124  0.6249279457356327  0.24042694465420594  1.0000
  Br  Br4       1.0  0.15359145017207668  0.3750720531739311  0.7595730546908701  1.0000
  I   I1        1.0  0.2737050127831094  0.2091916791588027  0.009108734529827191  1.0000
  I   I2        1.0  0.7262949860381511  0.7908083209547115  0.9908912648108029  1.0000
