data_image0
_chemical_formula_structural       H36C48N8O4Cl8I4
_chemical_formula_sum              "H36 C48 N8 O4 Cl8 I4"
_cell_length_a       6.789930278823449
_cell_length_b       14.242735482021006
_cell_length_c       13.658992703799864
_cell_angle_alpha    90.0
_cell_angle_beta     99.00668568338234
_cell_angle_gamma    90.0

_space_group_name_H-M_alt    "P 1"
_space_group_IT_number       1

loop_
  _space_group_symop_operation_xyz
  'x, y, z'

loop_
  _atom_site_type_symbol
  _atom_site_label
  _atom_site_symmetry_multiplicity
  _atom_site_fract_x
  _atom_site_fract_y
  _atom_site_fract_z
  _atom_site_occupancy
  H   H1        1.0  0.3726160018003959  0.46291861828950004  0.7340048379292274  1.0000
  H   H2        1.0  0.12738399929770244  0.9629186182185515  0.7659951621203075  1.0000
  H   H3        1.0  0.6273839992307476  0.5370813815686027  0.26599516243440247  1.0000
  H   H4        1.0  0.8726160015200047  0.03708138163955133  0.2340048375021327  1.0000
  H   H5        1.0  0.44608354399823147  0.6312392434268718  0.731691387000094  1.0000
  H   H6        1.0  0.053916455624066016  0.13123924349782032  0.7683086130393837  1.0000
  H   H7        1.0  0.553916455343675  0.3687607564312311  0.2683086126122889  1.0000
  H   H8        1.0  0.9460835454070775  0.8687607563602825  0.23169138732424627  1.0000
  H   H9        1.0  0.39646872060523225  0.7224906200771373  0.5756551771946088  1.0000
  H   H10       1.0  0.10353128049286607  0.22249062014808588  0.9243448228549261  1.0000
  H   H11       1.0  0.6035312804259111  0.2775093797809655  0.42434482316902117  1.0000
  H   H12       1.0  0.8964687205382774  0.7775093797100169  0.07565517750870382  1.0000
  H   H13       1.0  0.26482956596942214  0.6429147877919211  0.414422373432635  1.0000
  H   H14       1.0  0.2351704338082492  0.14291478716075745  0.08557762674415136  1.0000
  H   H15       1.0  0.7351704333724842  0.35708521276829397  0.5855776261797478  1.0000
  H   H16       1.0  0.7648295657470934  0.8570852126973453  0.9144223736094215  1.0000
  H   H17       1.0  0.14183265744764204  0.494856889598001  0.32426080616055514  1.0000
  H   H18       1.0  0.3581673423300292  0.9948568895270524  0.17573919401623123  1.0000
  H   H19       1.0  0.8581673421077006  0.5051431102601017  0.6757391941930178  1.0000
  H   H20       1.0  0.6418326570118771  0.005143110331050377  0.8242608055961517  1.0000
  H   H21       1.0  0.06998752712804814  0.321098639778365  0.338320248885814  1.0000
  H   H22       1.0  0.43001247264962317  0.8210986404095287  0.16167975129097242  1.0000
  H   H23       1.0  0.9300124724272945  0.6789013600797378  0.6616797514677588  1.0000
  H   H24       1.0  0.5699875269057194  0.1789013601506864  0.8383202490626003  1.0000
  H   H25       1.0  0.22996654927482899  0.2312227580268659  0.6373323481491999  1.0000
  H   H26       1.0  0.27003345182326927  0.7312227579559173  0.8626676519003348  1.0000
  H   H27       1.0  0.7700334517563145  0.768777241831237  0.3626676522144299  1.0000
  H   H28       1.0  0.7299665489944379  0.2687772419021855  0.13733234772210523  1.0000
  H   H29       1.0  0.15535613164982207  0.32747539023579275  0.7091917217193441  1.0000
  H   H30       1.0  0.34464386797247537  0.8274753901648441  0.7908082783201336  1.0000
  H   H31       1.0  0.8446438691678851  0.67252460962231  0.290808277903096  1.0000
  H   H32       1.0  0.6553561315828672  0.17252460969325867  0.20919172203343922  1.0000
  H   H33       1.0  0.4148993155484112  0.31190658392889253  0.69757661561876  1.0000
  H   H34       1.0  0.08510068554968718  0.8119065838579439  0.8024233844307749  1.0000
  H   H35       1.0  0.585100685269296  0.6880934159292103  0.30242338400368  1.0000
  H   H36       1.0  0.9148993154814564  0.18809341600015886  0.19757661593285514  1.0000
  C   C1        1.0  0.07644707642915943  0.5328942189217024  0.9122440930534026  1.0000
  C   C2        1.0  0.42355292319313803  0.03289421899265103  0.5877559069860752  1.0000
  C   C3        1.0  0.9235529231261833  0.46710578163851263  0.0877559073001702  1.0000
  C   C4        1.0  0.5764470761487682  0.967105781567564  0.4122440926263078  1.0000
  C   C5        1.0  0.17292166333521714  0.4538372020009454  0.9729940716216253  1.0000
  C   C6        1.0  0.3270783362870804  0.9538372019299968  0.5270059284178524  1.0000
  C   C7        1.0  0.8270783362201255  0.5461627978571573  0.027005928731947473  1.0000
  C   C8        1.0  0.6729216630548259  0.046162797928105924  0.47299407119453046  1.0000
  C   C9        1.0  0.10783557322598657  0.4274243032656655  0.057981042706893006  1.0000
  C   C10       1.0  0.3921644263382485  0.9274243038968292  0.44201895672870356  1.0000
  C   C11       1.0  0.8921644261159198  0.5725756965924373  0.9420189569054899  1.0000
  C   C12       1.0  0.607835573003658  0.07257569666338591  0.5579810428836794  1.0000
  C   C13       1.0  0.27662982955013016  0.45545522966347496  0.573807513095093  1.0000
  C   C14       1.0  0.22337017007216725  0.9554552295925264  0.9261924869443846  1.0000
  C   C15       1.0  0.7233701700052125  0.5445447701946279  0.42619248725847975  1.0000
  C   C16       1.0  0.7766298294831754  0.044544770265576454  0.0738075134091881  1.0000
  C   C17       1.0  0.3496589026718324  0.5007692791179987  0.6640875107563051  1.0000
  C   C18       1.0  0.15034109695046502  0.0007692791889472965  0.8359124892831725  1.0000
  C   C19       1.0  0.6503410968835102  0.4992307207401041  0.3359124895972676  1.0000
  C   C20       1.0  0.8496589023914413  0.9992307206691555  0.16408751032921032  1.0000
  C   C21       1.0  0.3901812912171538  0.5956971180648575  0.6624071261104354  1.0000
  C   C22       1.0  0.10981870988094454  0.095697118135806  0.8375928739390995  1.0000
  C   C23       1.0  0.6098187098139897  0.40430288179324536  0.33759287425319456  1.0000
  C   C24       1.0  0.8901812911501988  0.9043028817222968  0.16240712642453042  1.0000
  C   C25       1.0  0.36086789320099727  0.647701521357679  0.5730794661187085  1.0000
  C   C26       1.0  0.1391321078971011  0.14770152142862758  0.9269205339308263  1.0000
  C   C27       1.0  0.6391321078301462  0.3522984785004238  0.4269205342449214  1.0000
  C   C28       1.0  0.8608678929206062  0.8522984784294751  0.07307946569161382  1.0000
  C   C29       1.0  0.28952111771150935  0.6044449165588529  0.48443218710175817  1.0000
  C   C30       1.0  0.2104788818527257  0.10444491662980154  0.015567812333838308  1.0000
  C   C31       1.0  0.710478881630397  0.3955550832992498  0.5155678125106247  1.0000
  C   C32       1.0  0.7895211189649814  0.8955550832283012  0.9844321872886017  1.0000
  C   C33       1.0  0.24495335543419586  0.5071264694284061  0.48256899575197243  1.0000
  C   C34       1.0  0.25504664434347546  0.007126469499354724  0.017431004424814014  1.0000
  C   C35       1.0  0.7550466439077106  0.49287353042969667  0.5174310038604105  1.0000
  C   C36       1.0  0.7449533552118672  0.992873530358748  0.9825689959287587  1.0000
  C   C37       1.0  0.16778411001852386  0.4583008501590013  0.3955949411267067  1.0000
  C   C38       1.0  0.3322158897591474  0.9583008500880528  0.10440505905007973  1.0000
  C   C39       1.0  0.8322158910126196  0.5416991496991014  0.6044050592369232  1.0000
  C   C40       1.0  0.667784109582759  0.041699149770050056  0.8955949405623032  1.0000
  C   C41       1.0  0.12745508640176043  0.36351088079502425  0.4027170594575192  1.0000
  C   C42       1.0  0.37254491337591084  0.8635108807240757  0.09728294071926717  1.0000
  C   C43       1.0  0.8725449131535822  0.6364891190630786  0.5972829408960536  1.0000
  C   C44       1.0  0.6274550861794318  0.13648911913402711  0.9027170596343056  1.0000
  C   C45       1.0  0.2599640717150813  0.30391726613641934  0.6600590419345175  1.0000
  C   C46       1.0  0.24003592790721626  0.8039172660654708  0.8399409581049603  1.0000
  C   C47       1.0  0.7400359278402614  0.6960827337216835  0.33994095841905536  1.0000
  C   C48       1.0  0.7599640714346901  0.19608273379263208  0.1600590415074227  1.0000
  N   N1        1.0  0.230811499241249  0.3609345007136613  0.5697988890490963  1.0000
  N   N2        1.0  0.26918850038104847  0.8609345006427127  0.9302011109903814  1.0000
  N   N3        1.0  0.7691885003140937  0.6390654991444414  0.4302011113044765  1.0000
  N   N4        1.0  0.7308114989608578  0.13906549921539005  0.06979888862200147  1.0000
  N   N5        1.0  0.15918189482647013  0.3153794427812133  0.4883824358343686  1.0000
  N   N6        1.0  0.3408181049512012  0.8153794427102647  0.011617564342417763  1.0000
  N   N7        1.0  0.8408181045154363  0.6846205577790018  0.5116175637780143  1.0000
  N   N8        1.0  0.6591818946041414  0.1846205571478381  0.9883824360111549  1.0000
  O   O1        1.0  0.15386803147091085  0.5686387000744031  0.8452861130892362  1.0000
  O   O2        1.0  0.34613196962718745  0.06863870014535163  0.6547138869602986  1.0000
  O   O3        1.0  0.8461319693467964  0.43136129978369975  0.1547138865332039  1.0000
  O   O4        1.0  0.6538680314039559  0.9313613004148634  0.34528611340333126  1.0000
  Cl  Cl1       1.0  0.37528600296953746  0.40424861763865405  0.9334747072644295  1.0000
  Cl  Cl2       1.0  0.12471399665275999  0.9042486175677054  0.5665252927750482  1.0000
  Cl  Cl3       1.0  0.624713996372369  0.5957513822194487  0.06652529234795343  1.0000
  Cl  Cl4       1.0  0.8752860029025826  0.09575138229039735  0.4334747075785245  1.0000
  Cl  Cl5       1.0  0.2161949757576137  0.3383854622648739  0.13151023125093883  1.0000
  Cl  Cl6       1.0  0.2838050240200576  0.8383854621939253  0.36848976892584756  1.0000
  Cl  Cl7       1.0  0.7838050252735298  0.6616145375932289  0.8684897691126912  1.0000
  Cl  Cl8       1.0  0.7161949753218487  0.16161453766417744  0.6315102306865353  1.0000
  I   I1        1.0  0.8044904193018513  0.3536892359167224  0.8004143274706635  1.0000
  I   I2        1.0  0.6955095812935272  0.8536892358457737  0.6995856723285632  1.0000
  I   I3        1.0  0.19550958151585596  0.6463107639413803  0.19958567215177667  1.0000
  I   I4        1.0  0.3044904180483791  0.14631076401232898  0.30041432728381984  1.0000
