data_image0
_chemical_formula_structural       H36C44N12O4S2
_chemical_formula_sum              "H36 C44 N12 O4 S2"
_cell_length_a       9.790425121628118
_cell_length_b       10.409258409901152
_cell_length_c       11.497293955279781
_cell_angle_alpha    100.75599928148884
_cell_angle_beta     105.78693470502895
_cell_angle_gamma    112.52757827548602

_space_group_name_H-M_alt    "P 1"
_space_group_IT_number       1

loop_
  _space_group_symop_operation_xyz
  'x, y, z'

loop_
  _atom_site_type_symbol
  _atom_site_label
  _atom_site_symmetry_multiplicity
  _atom_site_fract_x
  _atom_site_fract_y
  _atom_site_fract_z
  _atom_site_occupancy
  H   H1        1.0  0.48402793431651153  0.6474771341902009  0.462088164310497  1.0000
  H   H2        1.0  0.5159720661551281  0.35252286602003147  0.5379118360024941  1.0000
  H   H3        1.0  0.4664256498674156  0.535781769088967  0.27116520544051836  1.0000
  H   H4        1.0  0.5335743506042242  0.4642182311212655  0.7288347948724726  1.0000
  H   H5        1.0  0.05326606480912501  0.2261565189103944  0.10737248698857396  1.0000
  H   H6        1.0  0.9467339351154834  0.7738434801991992  0.8926275130108906  1.0000
  H   H7        1.0  0.9621140190615718  0.05250046825102536  0.8913814506369426  1.0000
  H   H8        1.0  0.03788598141006812  0.9474995319592072  0.10861854967604852  1.0000
  H   H9        1.0  0.1526692884694766  0.06822014605307182  0.7814709258359733  1.0000
  H   H10       1.0  0.8473307109400456  0.9317798541557982  0.21852907423313495  1.0000
  H   H11       1.0  0.43575791631498045  0.2670429494322383  0.8891580553625952  1.0000
  H   H12       1.0  0.5642420841566592  0.7329570507779942  0.11084194495039595  1.0000
  H   H13       1.0  0.5248597821886508  0.4428345652727665  0.1022988719518692  1.0000
  H   H14       1.0  0.4751402172208713  0.5571654349361037  0.897701128117239  1.0000
  H   H15       1.0  0.26753782678925275  0.8391207991844307  0.7879709921512149  1.0000
  H   H16       1.0  0.7324621731353558  0.16087919992516284  0.21202900784824966  1.0000
  H   H17       1.0  0.31077494314590226  0.972792167776633  0.007514631269027554  1.0000
  H   H18       1.0  0.6892250573257375  0.027207832433599484  0.9924853690439637  1.0000
  H   H19       1.0  0.26590783269544377  0.8371150610480697  0.16123181192681865  1.0000
  H   H20       1.0  0.7340921667116552  0.16288493916184069  0.8387681872721379  1.0000
  H   H21       1.0  0.18645616923900712  0.5699208516257305  0.09733143509586159  1.0000
  H   H22       1.0  0.8135438312326327  0.430079148584502  0.9026685652171296  1.0000
  H   H23       1.0  0.15495323971510386  0.43730129972709747  0.8818351445163354  1.0000
  H   H24       1.0  0.8450467607565357  0.5626987004831349  0.11816485579665564  1.0000
  H   H25       1.0  0.5358248622434133  0.900380827528761  0.285636037007883  1.0000
  H   H26       1.0  0.46417513768119517  0.0996191715808325  0.7143639629915814  1.0000
  H   H27       1.0  0.6772836695088134  0.0642551470683961  0.4185680423471116  1.0000
  H   H28       1.0  0.32271632990070875  0.9357448531404741  0.5814319577219965  1.0000
  H   H29       1.0  0.5209744967595821  0.9156564897928949  0.4392830539909436  1.0000
  H   H30       1.0  0.47902550264994004  0.08434351041597513  0.5607169460781646  1.0000
  H   H31       1.0  0.9075550710498725  0.9095040768971232  0.6325875762854453  1.0000
  H   H32       1.0  0.0924449283596495  0.09049592331174695  0.3674124237836629  1.0000
  H   H33       1.0  0.7442810788703718  0.9478962142380516  0.6387326697013432  1.0000
  H   H34       1.0  0.2557189205391504  0.05210378597081877  0.3612673303677651  1.0000
  H   H35       1.0  0.9073917653098936  0.0755871696284596  0.6089107481211781  1.0000
  H   H36       1.0  0.09260823461471485  0.9244128294811341  0.39108925187828647  1.0000
  C   C1        1.0  0.29170766015448074  0.4438028660934858  0.33137447789826713  1.0000
  C   C2        1.0  0.7082923397701276  0.5561971330161077  0.6686255221011974  1.0000
  C   C3        1.0  0.03693641379517975  0.32660666736052724  0.4917988488540317  1.0000
  C   C4        1.0  0.96306358667646  0.6733933328497053  0.5082011514589594  1.0000
  C   C5        1.0  0.06064534135201869  0.412617263645522  0.6172052714294877  1.0000
  C   C6        1.0  0.939354659119621  0.5873827365647104  0.3827947288835034  1.0000
  C   C7        1.0  0.19239211870260622  0.551397791305856  0.6914921720840645  1.0000
  C   C8        1.0  0.807607881222002  0.4486022078037376  0.3085078279154  1.0000
  C   C9        1.0  0.30840361700430147  0.613888454323382  0.6399573439422449  1.0000
  C   C10       1.0  0.6915963834673382  0.3861115458868505  0.3600426563707463  1.0000
  C   C11       1.0  0.2845000566353213  0.5329484100098562  0.5174341677185577  1.0000
  C   C12       1.0  0.7154999438363183  0.4670515902003763  0.48256583259443353  1.0000
  C   C13       1.0  0.29528448129228413  0.3446290428541848  0.11905033711311798  1.0000
  C   C14       1.0  0.7047155191793555  0.6553709573560477  0.8809496631998731  1.0000
  C   C15       1.0  0.13623027745623398  0.2351451147578839  0.05918284405321532  1.0000
  C   C16       1.0  0.8637697230154058  0.7648548854523485  0.9408171562597759  1.0000
  C   C17       1.0  0.08597441739350156  0.13768630700055434  0.9372296877119123  1.0000
  C   C18       1.0  0.9140255830757151  0.8623136932107184  0.06277031173092706  1.0000
  C   C19       1.0  0.1920384630543964  0.14702777301043526  0.8751207767254454  1.0000
  C   C20       1.0  0.8079615374172432  0.852972227199797  0.1248792235875456  1.0000
  C   C21       1.0  0.35002369486407975  0.25783432246174054  0.9350147337675769  1.0000
  C   C22       1.0  0.6499763050605286  0.742165676647853  0.06498526623188755  1.0000
  C   C23       1.0  0.4014384581697337  0.3568807008590383  0.05584258435925652  1.0000
  C   C24       1.0  0.5985615422994828  0.6431192993522344  0.9441574150835829  1.0000
  C   C25       1.0  0.9317364416932563  0.3491662609546092  0.6560303848370455  1.0000
  C   C26       1.0  0.06826355771626592  0.6508337392542609  0.34396961523206276  1.0000
  C   C27       1.0  0.2107328080881364  0.6296615704877614  0.8199451014264819  1.0000
  C   C28       1.0  0.7892671918340488  0.37033842862287236  0.18005489770283076  1.0000
  C   C29       1.0  0.25586702022513846  0.7812180112840961  0.8571478179638539  1.0000
  C   C30       1.0  0.7441329802440779  0.2187819889271766  0.1428521814789855  1.0000
  C   C31       1.0  0.2770342021603333  0.8556239059883459  0.9797342382861671  1.0000
  C   C32       1.0  0.7229657967021577  0.14437609311988536  0.020265761469414473  1.0000
  C   C33       1.0  0.251981698148998  0.7796913449294066  0.06616925953939744  1.0000
  C   C34       1.0  0.7480183017756105  0.22030865418018694  0.9338307404600671  1.0000
  C   C35       1.0  0.2065262668857845  0.629061890411463  0.02997692428571727  1.0000
  C   C36       1.0  0.7934737335858552  0.37093810979876946  0.9700230760272738  1.0000
  C   C37       1.0  0.18639331429942485  0.5540866707903054  0.9078490277218579  1.0000
  C   C38       1.0  0.8136066851100974  0.4459133294185649  0.09215097234725032  1.0000
  C   C39       1.0  0.4473852177581385  0.7506148502776978  0.7011107441918578  1.0000
  C   C40       1.0  0.5526147827135012  0.24938514993253466  0.2988892561211332  1.0000
  C   C41       1.0  0.6029932773544229  0.9451716898865775  0.3891640662135517  1.0000
  C   C42       1.0  0.3970067225677625  0.05482830922405634  0.6108359329157611  1.0000
  C   C43       1.0  0.8331498543590657  0.9599493948707332  0.5950719841163282  1.0000
  C   C44       1.0  0.16685014611257393  0.040050605339499404  0.4049280161966629  1.0000
  N   N1        1.0  0.3734589369108043  0.5598394895357987  0.44553107066224784  1.0000
  N   N2        1.0  0.6265410624987179  0.4401605106730715  0.5544689294068603  1.0000
  N   N3        1.0  0.356275505880204  0.44656167891591  0.2416136637974168  1.0000
  N   N4        1.0  0.6437244945890125  0.5534383212953626  0.7583863356454226  1.0000
  N   N5        1.0  0.15608494354424168  0.3428986601500893  0.3289984755658011  1.0000
  N   N6        1.0  0.843915056927398  0.6571013400601432  0.6710015247471901  1.0000
  N   N7        1.0  0.15399605314421058  0.4010324907478754  0.4464189113274333  1.0000
  N   N8        1.0  0.846003947327429  0.598967509462357  0.5535810889855579  1.0000
  N   N9        1.0  0.8181151625356322  0.29283333490240243  0.6791290128320148  1.0000
  N   N10       1.0  0.18188483793600754  0.70716666530783  0.3208709874809763  1.0000
  N   N11       1.0  0.5649772187404962  0.861819221774616  0.7405700632362117  1.0000
  N   N12       1.0  0.4350227801219947  0.1381807773336152  0.25942993651936996  1.0000
  O   O1        1.0  0.9274723489877861  0.2014359380547518  0.4262905652386646  1.0000
  O   O2        1.0  0.07252765093682247  0.7985640610548418  0.5737094347607999  1.0000
  O   O3        1.0  0.631560684771108  0.7059330934244809  0.4103581442036941  1.0000
  O   O4        1.0  0.36843931570053173  0.2940669067857517  0.589641856109297  1.0000
  S   S1        1.0  0.7368328001178068  0.8668808805533494  0.42633570933461723  1.0000
  S   S2        1.0  0.2631672003538328  0.13311911965688292  0.5736642909783739  1.0000
