data_image0
_chemical_formula_structural       H38C26N6O10
_chemical_formula_sum              "H38 C26 N6 O10"
_cell_length_a       4.515357064697533
_cell_length_b       11.049464644434451
_cell_length_c       15.209580765152765
_cell_angle_alpha    104.99499651260629
_cell_angle_beta     95.31581488449014
_cell_angle_gamma    96.86660817526236

_space_group_name_H-M_alt    "P 1"
_space_group_IT_number       1

loop_
  _space_group_symop_operation_xyz
  'x, y, z'

loop_
  _atom_site_type_symbol
  _atom_site_label
  _atom_site_symmetry_multiplicity
  _atom_site_fract_x
  _atom_site_fract_y
  _atom_site_fract_z
  _atom_site_occupancy
  H   H1        1.0  0.8518260676163885  0.8333568324995508  0.02780524298524612  1.0000
  H   H2        1.0  0.14817393157438663  0.16664316728552822  0.9721947570739321  1.0000
  H   H3        1.0  0.42729663378367294  0.9332119999116246  0.0888029302055969  1.0000
  H   H4        1.0  0.572703365407102  0.06678799987345443  0.9111970698535813  1.0000
  H   H5        1.0  0.40250045641398113  0.8228636446285859  0.15542349363605906  1.0000
  H   H6        1.0  0.5974995453856253  0.17713635608620798  0.8445765060164417  1.0000
  H   H7        1.0  0.9316574908212572  0.9107080189574595  0.23153242242666  1.0000
  H   H8        1.0  0.06834251058813182  0.08929198081280959  0.7684675776969278  1.0000
  H   H9        1.0  0.6737549028258176  0.022151585802807426  0.250694349491238  1.0000
  H   H10       1.0  0.32624509636495735  0.9778484139822715  0.7493056505679402  1.0000
  H   H11       1.0  0.0012366288824196335  0.20966187658442115  0.2661327567295801  1.0000
  H   H12       1.0  0.9987633703281072  0.7903381231977676  0.7338672426721495  1.0000
  H   H13       1.0  0.28544950691269055  0.11329224890079027  0.2772334807522188  1.0000
  H   H14       1.0  0.7145504926485499  0.8867077518317036  0.7227665194933212  1.0000
  H   H15       1.0  0.48899030881380384  0.162731008274254  0.13930940274687195  1.0000
  H   H16       1.0  0.5110096903967231  0.837268991507935  0.8606905966548578  1.0000
  H   H17       1.0  0.5216083493882402  0.29357019822783825  0.23838332488708405  1.0000
  H   H18       1.0  0.47839164980253474  0.7064298015572408  0.7616166751720943  1.0000
  H   H19       1.0  0.21756396822206023  0.42880192272072315  0.06731355050599983  1.0000
  H   H20       1.0  0.7824360309687146  0.5711980770643558  0.9326864495531784  1.0000
  H   H21       1.0  0.5422067033387493  0.4377732594815575  0.14593352572590493  1.0000
  H   H22       1.0  0.4577932980706395  0.5622267402887116  0.8540664743976826  1.0000
  H   H23       1.0  0.3118333998742845  0.7537415370420101  0.9555681942095301  1.0000
  H   H24       1.0  0.68816660190557  0.2462584636756739  0.0444318061004193  1.0000
  H   H25       1.0  0.3422040787219559  0.6333449500521351  0.01169278834820772  1.0000
  H   H26       1.0  0.6577959208392846  0.36665505068035886  0.9883072118973323  1.0000
  H   H27       1.0  0.4025350407235864  0.4667135837010869  0.3532209217194179  1.0000
  H   H28       1.0  0.5974649584671885  0.5332864160839922  0.6467790783397603  1.0000
  H   H29       1.0  0.8100579140493125  0.5367690392650551  0.4834416371366652  1.0000
  H   H30       1.0  0.18994208514146246  0.4632309605200239  0.516558362922513  1.0000
  H   H31       1.0  0.8787776943037368  0.9182337231351778  0.45598175074631053  1.0000
  H   H32       1.0  0.1212223048870382  0.08176627664990119  0.5440182493128677  1.0000
  H   H33       1.0  0.4664795103675363  0.8487118336397756  0.3271297103202152  1.0000
  H   H34       1.0  0.5335204891937042  0.15128816709271828  0.6728702899253247  1.0000
  H   H35       1.0  0.07645763704182862  0.5046050973412868  0.23375086480785712  1.0000
  H   H36       1.0  0.9235423643675601  0.49539490242898226  0.7662491353157305  1.0000
  H   H37       1.0  0.8197652501545739  0.6943081574902492  0.10256911928433463  1.0000
  H   H38       1.0  0.1802347494066666  0.30569184324224474  0.8974308809612055  1.0000
  C   C1        1.0  0.5596533938310415  0.8768846258553334  0.12331852882255984  1.0000
  C   C2        1.0  0.4403466079488131  0.1231153748623505  0.8766814714873895  1.0000
  C   C3        1.0  0.7899906736313465  0.9650149770540969  0.19773479285514997  1.0000
  C   C4        1.0  0.2100093255594285  0.03498502273098218  0.8022652072040284  1.0000
  C   C5        1.0  0.1501813238239573  0.1490026352311904  0.22769453041455848  1.0000
  C   C6        1.0  0.8498186779558972  0.8509973654864935  0.7723054698953908  1.0000
  C   C7        1.0  0.359004560187601  0.2255385385662573  0.18407742471411775  1.0000
  C   C8        1.0  0.6409954393933914  0.7744614621633464  0.8159225748739738  1.0000
  C   C9        1.0  0.3710023088884519  0.372312953761994  0.093470725915222  1.0000
  C   C10       1.0  0.628997690302323  0.627687046023085  0.9065292741439562  1.0000
  C   C11       1.0  0.4734930455261565  0.7011223618671332  0.9830922405707468  1.0000
  C   C12       1.0  0.526506956253698  0.2988776388505508  0.01690775973920252  1.0000
  C   C13       1.0  0.406963696910545  0.6523696812188154  0.3302354605299698  1.0000
  C   C14       1.0  0.5930363026704475  0.3476303195107883  0.6697645390581216  1.0000
  C   C15       1.0  0.5068520770821195  0.5656573909475597  0.37569384136349554  1.0000
  C   C16       1.0  0.49314792249887307  0.43434260978204403  0.6243061582245959  1.0000
  C   C17       1.0  0.735265261925368  0.6041525013057563  0.4487293254006019  1.0000
  C   C18       1.0  0.2647347394840209  0.39584749846451267  0.5512706747229857  1.0000
  C   C19       1.0  0.8685797773652392  0.7311597283556165  0.4767978174922406  1.0000
  C   C20       1.0  0.13142022182553573  0.26884027142946243  0.5232021825669376  1.0000
  C   C21       1.0  0.7737583226868766  0.8197662233475747  0.4331666516071012  1.0000
  C   C22       1.0  0.2262416787225122  0.18023377642269442  0.5668333485164865  1.0000
  C   C23       1.0  0.5437886693308334  0.7804124969005618  0.3608393794789735  1.0000
  C   C24       1.0  0.4562113302304073  0.21958750383193218  0.6391606207665665  1.0000
  C   C25       1.0  0.17213771684110185  0.6053551590050718  0.25309428925148864  1.0000
  C   C26       1.0  0.827862282369425  0.3946448407771171  0.746905710150241  1.0000
  N   N1        1.0  0.6972004474073343  0.7855385728870704  0.05683443520794013  1.0000
  N   N2        1.0  0.3027995540020546  0.21446142688319872  0.9431655649156474  1.0000
  N   N3        1.0  0.08494341515743184  0.6799074933593253  0.20591524320876378  1.0000
  N   N4        1.0  0.915056584033343  0.32009250642575376  0.7940847568504145  1.0000
  N   N5        1.0  0.1107074662116399  0.7711936130383841  0.5523298536549786  1.0000
  N   N6        1.0  0.8892925333496007  0.2288063876941098  0.4476701465905615  1.0000
  O   O1        1.0  0.9732743290921613  0.04653017250190757  0.15840599973583228  1.0000
  O   O2        1.0  0.02672567268769307  0.9534698282157763  0.841594000574117  1.0000
  O   O3        1.0  0.1865719951251585  0.29150845857977803  0.13329803981725555  1.0000
  O   O4        1.0  0.8134280040656163  0.7084915412053009  0.8667019602419228  1.0000
  O   O5        1.0  0.8747897245665647  0.619803562008954  0.13272724238162878  1.0000
  O   O6        1.0  0.12521027462421036  0.38019643777612494  0.8672727576775494  1.0000
  O   O7        1.0  0.18906485000367834  0.6905722201708631  0.5907133817312106  1.0000
  O   O8        1.0  0.8109351491870965  0.309427779614216  0.40928661832796764  1.0000
  O   O9        1.0  0.2313264775778719  0.884347748884467  0.5765692864127636  1.0000
  O   O10       1.0  0.768673523831517  0.11565225088580217  0.4234307137108241  1.0000
