data_image0
_chemical_formula_structural       H12B2C30N6F8S12
_chemical_formula_sum              "H12 B2 C30 N6 F8 S12"
_cell_length_a       9.244408712060208
_cell_length_b       10.596442189603982
_cell_length_c       11.184093254930971
_cell_angle_alpha    118.03781608699911
_cell_angle_beta     107.46645377162307
_cell_angle_gamma    97.70640784972613

_space_group_name_H-M_alt    "P 1"
_space_group_IT_number       1

loop_
  _space_group_symop_operation_xyz
  'x, y, z'

loop_
  _atom_site_type_symbol
  _atom_site_label
  _atom_site_symmetry_multiplicity
  _atom_site_fract_x
  _atom_site_fract_y
  _atom_site_fract_z
  _atom_site_occupancy
  H   H1        1.0  0.14674535397471683  0.3285776048849881  0.09505021954119011  1.0000
  H   H2        1.0  0.8532546457009696  0.671422394427483  0.9049497801140648  1.0000
  H   H3        1.0  0.3988490166857166  0.5358050436428732  0.2223685348099765  1.0000
  H   H4        1.0  0.6011509829899699  0.4641949556695978  0.7776314648452783  1.0000
  H   H5        1.0  0.35306140273632725  0.029295126057538538  0.5214544225097001  1.0000
  H   H6        1.0  0.6469385970909732  0.9707048742085467  0.47854557714794216  1.0000
  H   H7        1.0  0.30760225476881237  0.7881610702679575  0.5129023271249757  1.0000
  H   H8        1.0  0.692397745058488  0.21183892999812776  0.4870976725326665  1.0000
  H   H9        1.0  0.7010368874412712  0.8125576636158633  0.14059648125066992  1.0000
  H   H10       1.0  0.29896311223441524  0.1874423356966076  0.859403518404585  1.0000
  H   H11       1.0  0.7461785005434199  0.056302148501918274  0.15822439395777554  1.0000
  H   H12       1.0  0.2538214992838805  0.943697851764167  0.8417756056998668  1.0000
  B   B1        1.0  0.4799588497389228  0.2782875769263996  0.2142301841506517  1.0000
  B   B2        1.0  0.5200411499367639  0.7217124223860715  0.7857698155046032  1.0000
  C   C1        1.0  0.9997990749190169  0.43436402651670464  0.005167929468702014  1.0000
  C   C2        1.0  0.00020092526408049179  0.5656359734044102  0.9948320713000551  1.0000
  C   C3        1.0  0.14697734879241284  0.42830917525461026  0.08872246888925059  1.0000
  C   C4        1.0  0.8530226513906844  0.5716908246665047  0.9112775318795068  1.0000
  C   C5        1.0  0.28848931034834363  0.5429424652734602  0.1596557228444887  1.0000
  C   C6        1.0  0.7115106898347537  0.4570575346476547  0.8403442779242686  1.0000
  C   C7        1.0  0.29348416344600875  0.6746656188412414  0.15242080690672383  1.0000
  C   C8        1.0  0.7065158362296778  0.32533438047122964  0.8475791927485311  1.0000
  C   C9        1.0  0.1465322500386718  0.6826693461014807  0.0678012568476837  1.0000
  C   C10       1.0  0.8534677497886287  0.31733065416460465  0.9321987428099585  1.0000
  C   C11       1.0  0.1061901205308347  0.9752188701906251  0.37668775425863066  1.0000
  C   C12       1.0  0.8938098798038764  0.024781130684103845  0.623312246512514  1.0000
  C   C13       1.0  0.2343404598834283  0.943680925583633  0.45477441296217735  1.0000
  C   C14       1.0  0.7656595399438721  0.0563190746824522  0.545225586695465  1.0000
  C   C15       1.0  0.2111632667914295  0.811763112822697  0.4512631962406616  1.0000
  C   C16       1.0  0.788836733035871  0.18823688744338823  0.5487368034169806  1.0000
  C   C17       1.0  0.05416737062453448  0.7026323222400139  0.3694228118476176  1.0000
  C   C18       1.0  0.945832629558563  0.29736767768110095  0.6305771889211397  1.0000
  C   C19       1.0  0.9230464341582431  0.7326731569560827  0.291252339460517  1.0000
  C   C20       1.0  0.07695356566905742  0.26732684331000256  0.7087476601971253  1.0000
  C   C21       1.0  0.946822711812851  0.8667530456038469  0.2906491939326585  1.0000
  C   C22       1.0  0.05317728786283548  0.1332469537086242  0.7093508057225965  1.0000
  C   C23       1.0  0.8200965612718457  0.8975684969327197  0.2097359299679435  1.0000
  C   C24       1.0  0.1799034385554547  0.10243150333336548  0.7902640696896988  1.0000
  C   C25       1.0  0.8436479669194596  0.0314301655785227  0.21679253964205725  1.0000
  C   C26       1.0  0.1563520329078408  0.9685698346875626  0.783207460015585  1.0000
  C   C27       1.0  0.9988163376815875  0.1437981175588696  0.30562093405034463  1.0000
  C   C28       1.0  0.00118366265312379  0.8562018833158596  0.6943790667208001  1.0000
  C   C29       1.0  0.12976152585991269  0.11195531782978058  0.3812346045237919  1.0000
  C   C30       1.0  0.8702384739673878  0.8880446824363046  0.6187653951338503  1.0000
  N   N1        1.0  0.42875274263987934  0.7892451114544841  0.22036697854955686  1.0000
  N   N2        1.0  0.5712472570358071  0.21075488785798713  0.779633021105698  1.0000
  N   N3        1.0  0.02460572124302402  0.5724999257048361  0.3637658368142831  1.0000
  N   N4        1.0  0.9753942784326625  0.42750007360763487  0.6362341628409718  1.0000
  N   N5        1.0  0.027721313183640517  0.279869655970777  0.3225831356526232  1.0000
  N   N6        1.0  0.9722786871510706  0.7201303449039521  0.6774168651185215  1.0000
  F   F1        1.0  0.5074200999220243  0.3074477738860149  0.10931213243113906  1.0000
  F   F2        1.0  0.4925798997536622  0.692552225426456  0.8906878672241159  1.0000
  F   F3        1.0  0.3259507302904528  0.17117183925858906  0.14635386242366866  1.0000
  F   F4        1.0  0.6740492706135843  0.8288281609984675  0.8536461372241685  1.0000
  F   F5        1.0  0.48905476066749126  0.41670691580760766  0.336423639853881  1.0000
  F   F6        1.0  0.5109452390081952  0.5832930835048633  0.6635763598013739  1.0000
  F   F7        1.0  0.5992429703674167  0.22409780929087997  0.2666810551385241  1.0000
  F   F8        1.0  0.4007570298156806  0.775902190630235  0.7333189456302331  1.0000
  S   S1        1.0  0.16944580341136659  0.8448263384168245  0.06208130408835342  1.0000
  S   S2        1.0  0.8305541962643199  0.1551736608956465  0.9379186955669016  1.0000
  S   S3        1.0  0.4148233193260587  0.930776552214524  0.20203023819179403  1.0000
  S   S4        1.0  0.5851766805012417  0.06922344805156111  0.7979697614658482  1.0000
  S   S5        1.0  0.7398954009454988  0.5925642925014887  0.20281265247251257  1.0000
  S   S6        1.0  0.2601045987301877  0.40743570681098235  0.7971873471827423  1.0000
  S   S7        1.0  0.8418951170781368  0.46139073182025964  0.2729325726709518  1.0000
  S   S8        1.0  0.15810488325657449  0.5386092690544695  0.7270674281001929  1.0000
  S   S9        1.0  0.31187100583222915  0.2545763137827503  0.47742339150484164  1.0000
  S   S10       1.0  0.6881289939950712  0.7454236864833348  0.5225766081528006  1.0000
  S   S11       1.0  0.20751589973300993  0.39573615063821865  0.42634044720247033  1.0000
  S   S12       1.0  0.7924841006017013  0.6042638502365104  0.5736595535686743  1.0000
