data_image0
_chemical_formula_structural       H18C22N4O10F2
_chemical_formula_sum              "H18 C22 N4 O10 F2"
_cell_length_a       6.818883216816956
_cell_length_b       8.51430972690103
_cell_length_c       10.611838675198761
_cell_angle_alpha    68.12214819947529
_cell_angle_beta     85.81755702417409
_cell_angle_gamma    78.63277612615866

_space_group_name_H-M_alt    "P 1"
_space_group_IT_number       1

loop_
  _space_group_symop_operation_xyz
  'x, y, z'

loop_
  _atom_site_type_symbol
  _atom_site_label
  _atom_site_symmetry_multiplicity
  _atom_site_fract_x
  _atom_site_fract_y
  _atom_site_fract_z
  _atom_site_occupancy
  H   H1        1.0  0.6432610495042339  0.04219404344350078  0.7250931500211767  1.0000
  H   H2        1.0  0.35673895075007916  0.9578059567094452  0.2749068497469095  1.0000
  H   H3        1.0  0.5813451245077335  0.3343790149621737  0.566123522080034  1.0000
  H   H4        1.0  0.41865487574657956  0.6656209851907724  0.433876477688052  1.0000
  H   H5        1.0  0.9755410161863857  0.36290912810144726  0.5900065833715356  1.0000
  H   H6        1.0  0.02445898259883065  0.6370908720453382  0.40999341646497556  1.0000
  H   H7        1.0  0.8892422935609486  0.9267668361303574  0.9014517320201525  1.0000
  H   H8        1.0  0.1107577069750203  0.07323316273507759  0.09854826812214348  1.0000
  H   H9        1.0  0.1544510848618147  0.026396139281281785  0.46451529222683  1.0000
  H   H10       1.0  0.8455489139234018  0.9736038608655038  0.5354847076096811  1.0000
  H   H11       1.0  0.5181374982872018  0.6959746330351094  0.0848377402081985  1.0000
  H   H12       1.0  0.4818625004980146  0.304025367111676  0.9151622596283125  1.0000
  H   H13       1.0  0.22337885654099102  0.4112238392034211  0.21114507439432717  1.0000
  H   H14       1.0  0.776621143713322  0.588776160949525  0.7888549253737589  1.0000
  H   H15       1.0  0.5936340845524121  0.4011962667098856  0.2657615990086047  1.0000
  H   H16       1.0  0.4063659159835569  0.5988037321555494  0.7342384011336914  1.0000
  H   H17       1.0  0.14824647282176232  0.7035991893337065  0.03167683505768894  1.0000
  H   H18       1.0  0.8517535274325506  0.29640081081923964  0.9683231647103971  1.0000
  C   C1        1.0  0.3298267654060364  0.034713985097082234  0.7552863668413968  1.0000
  C   C2        1.0  0.6701732333749084  0.9652860150530705  0.24471363393664552  1.0000
  C   C3        1.0  0.276788209251113  0.3669145727247656  0.5608988160988216  1.0000
  C   C4        1.0  0.7232117910032  0.6330854274281805  0.4391011836692645  1.0000
  C   C5        1.0  0.49006686480005024  0.10774859725900074  0.6979260156213959  1.0000
  C   C6        1.0  0.5099331354542627  0.8922514028939453  0.30207398414669023  1.0000
  C   C7        1.0  0.1287254407854313  0.1269584665812508  0.7194425776979665  1.0000
  C   C8        1.0  0.8712745594688818  0.8730415335716952  0.2805574220701197  1.0000
  C   C9        1.0  0.9132280978487618  0.3879729043159847  0.2508102271326766  1.0000
  C   C10       1.0  0.086771902687207  0.6120270945494503  0.7491897730096194  1.0000
  C   C11       1.0  0.8279124056691433  0.7171790160914533  0.04839276834273731  1.0000
  C   C12       1.0  0.17208759458516978  0.28282098406149264  0.9516072314253489  1.0000
  C   C13       1.0  0.951803719268008  0.21889252256537298  0.3601561319635707  1.0000
  C   C14       1.0  0.04819628098630504  0.7811074775875732  0.6398438678045154  1.0000
  C   C15       1.0  0.6712674465236307  0.6309544751304785  0.11428581729458955  1.0000
  C   C16       1.0  0.32873255372641064  0.3690455250258349  0.8857141834150278  1.0000
  C   C17       1.0  0.06905803094829205  0.47387059468833687  0.1836277972613725  1.0000
  C   C18       1.0  0.9309419678369244  0.5261294054584486  0.8163722025751385  1.0000
  C   C19       1.0  0.7138008868064504  0.4686164514093625  0.21397421245425324  1.0000
  C   C20       1.0  0.2861991134478627  0.5313835487435835  0.786025787313833  1.0000
  C   C21       1.0  0.027800263858567438  0.6368727426812082  0.08357522356390044  1.0000
  C   C22       1.0  0.9721997363957455  0.36312725747173785  0.9164247762041855  1.0000
  N   N1        1.0  0.11837046546845725  0.2902689872476289  0.620966757775437  1.0000
  N   N2        1.0  0.8816295347858558  0.709731012905317  0.37903324199264926  1.0000
  N   N3        1.0  0.46175514104006943  0.27118615685701325  0.6026985872360883  1.0000
  N   N4        1.0  0.5382448577408755  0.7288138432931396  0.39730141354195414  1.0000
  O   O1        1.0  0.25274977870018545  0.5166422652829495  0.4724287941317931  1.0000
  O   O2        1.0  0.7472502215541275  0.48335773486999656  0.5275712056362931  1.0000
  O   O3        1.0  0.9719527014516384  0.07312724026857859  0.7675828013953775  1.0000
  O   O4        1.0  0.028047298798402943  0.9268727598877348  0.2324171993142398  1.0000
  O   O5        1.0  0.7750298796020361  0.8762792755306681  0.9549546202721592  1.0000
  O   O6        1.0  0.22497012093393273  0.12372072333476694  0.04504537987013683  1.0000
  O   O7        1.0  0.8109658932062574  0.1481961196913189  0.42520847978610515  1.0000
  O   O8        1.0  0.18903410704805543  0.8518038804616271  0.574791519981981  1.0000
  O   O9        1.0  0.14243158509348733  0.14733585670910765  0.3871656217161348  1.0000
  O   O10       1.0  0.8575684151608257  0.8526641434438383  0.6128343780519513  1.0000
  F   F1        1.0  0.3528435876892218  0.8726008407595716  0.848222565409247  1.0000
  F   F2        1.0  0.6471564125608196  0.1273991593967418  0.15177743530037038  1.0000
