data_image0
_chemical_formula_structural       H44C36N4O4S2I4
_chemical_formula_sum              "H44 C36 N4 O4 S2 I4"
_cell_length_a       8.807780431564288
_cell_length_b       10.544936176821087
_cell_length_c       11.130447172170246
_cell_angle_alpha    94.4099159684291
_cell_angle_beta     104.40435739760389
_cell_angle_gamma    90.47438034409954

_space_group_name_H-M_alt    "P 1"
_space_group_IT_number       1

loop_
  _space_group_symop_operation_xyz
  'x, y, z'

loop_
  _atom_site_type_symbol
  _atom_site_label
  _atom_site_symmetry_multiplicity
  _atom_site_fract_x
  _atom_site_fract_y
  _atom_site_fract_z
  _atom_site_occupancy
  H   H1        1.0  0.5372468111631875  0.8920911345877309  0.20875697048615968  1.0000
  H   H2        1.0  0.4627531885008421  0.10790886551609226  0.7912430300160799  1.0000
  H   H3        1.0  0.7065374061535834  0.019050399159218204  0.17212677611023355  1.0000
  H   H4        1.0  0.2934625946457619  0.9809496009426205  0.8278732243919366  1.0000
  H   H5        1.0  0.058603627729759675  0.9625235972840924  0.16391768168795667  1.0000
  H   H6        1.0  0.9413963730695856  0.03747640281774619  0.8360823188142134  1.0000
  H   H7        1.0  0.10516905795519195  0.17504154816813153  0.09138465481320826  1.0000
  H   H8        1.0  0.8948309414154396  0.824958451860643  0.908615344758341  1.0000
  H   H9        1.0  0.37049746078103307  0.24154091434046582  0.07993562836546797  1.0000
  H   H10       1.0  0.6295025400183122  0.7584590857613729  0.9200643721367021  1.0000
  H   H11       1.0  0.26894650975437867  0.713135123962152  0.1487886669382149  1.0000
  H   H12       1.0  0.7310534910449666  0.28686487613968675  0.8512113335639551  1.0000
  H   H13       1.0  0.18603040654977723  0.7729223962517318  0.27072384164736196  1.0000
  H   H14       1.0  0.813969594249568  0.2270776038501067  0.729276158854808  1.0000
  H   H15       1.0  0.394028962639192  0.7581075490426954  0.29865584115519306  1.0000
  H   H16       1.0  0.6059710370248375  0.24189245106112786  0.7013441593470464  1.0000
  H   H17       1.0  0.5906999517314191  0.5810080689996191  0.40246209813082  1.0000
  H   H18       1.0  0.4093000490679262  0.4189919311022196  0.5975379023713498  1.0000
  H   H19       1.0  0.9466810663924016  0.3279471999824913  0.5689689259002125  1.0000
  H   H20       1.0  0.05331893297822999  0.6720528000462832  0.4310310736713367  1.0000
  H   H21       1.0  0.4860204489082286  0.5773736246176544  0.20522132528550702  1.0000
  H   H22       1.0  0.5139795515977187  0.4226263754091353  0.7947786742859726  1.0000
  H   H23       1.0  0.4260164892474518  0.4259377493043807  0.12646136640466688  1.0000
  H   H24       1.0  0.5739835112584956  0.5740622507224091  0.8735386331668128  1.0000
  H   H25       1.0  0.5866345593984921  0.5088752086706084  0.09829886889829575  1.0000
  H   H26       1.0  0.4133654402655374  0.4911247914332149  0.9017011316039437  1.0000
  H   H27       1.0  0.713292914675925  0.6192772487037063  0.6173821493062858  1.0000
  H   H28       1.0  0.28670708612342033  0.38072275139813233  0.38261785119588415  1.0000
  H   H29       1.0  0.907775386236005  0.5623230576585798  0.6672733368640384  1.0000
  H   H30       1.0  0.0922246134280245  0.4376769424452434  0.332726663638201  1.0000
  H   H31       1.0  0.7485745569091348  0.475140723244336  0.6912733215262511  1.0000
  H   H32       1.0  0.25142544246149673  0.5248592767844384  0.30872667804529813  1.0000
  H   H33       1.0  0.8916040901914968  0.08484807435964486  0.3335945832714588  1.0000
  H   H34       1.0  0.10839590947253266  0.9151519257441784  0.6664054172307806  1.0000
  H   H35       1.0  0.02065020277361833  0.16304873782043572  0.46742255816506945  1.0000
  H   H36       1.0  0.9793497977323291  0.8369512622063542  0.5325774414064104  1.0000
  H   H37       1.0  0.03519500909486304  0.19263935358549475  0.314986016741539  1.0000
  H   H38       1.0  0.9648049902757687  0.8073606464432797  0.6850139828300102  1.0000
  H   H39       1.0  0.5728316994509755  0.2120547543640096  0.44336672198074334  1.0000
  H   H40       1.0  0.42716830134836986  0.787945245737829  0.5566332785214267  1.0000
  H   H41       1.0  0.22547348118622706  0.9528978844880831  0.5065543480392549  1.0000
  H   H42       1.0  0.7745265181844044  0.04710211554069116  0.4934456515322942  1.0000
  H   H43       1.0  0.2979288046847773  0.16430760602019231  0.45135268572227666  1.0000
  H   H44       1.0  0.7020711946858543  0.8356923940085821  0.5486473138492726  1.0000
  C   C1        1.0  0.4750386969565477  0.06838145139725658  0.14826692680414416  1.0000
  C   C2        1.0  0.5249613035493996  0.9316185486295332  0.8517330727673356  1.0000
  C   C3        1.0  0.2995752646783071  0.9122835255968147  0.19211023474791908  1.0000
  C   C4        1.0  0.7004247361210382  0.08771647450502397  0.8078897657542509  1.0000
  C   C5        1.0  0.17529146273301258  0.9929703001101827  0.15921436049195944  1.0000
  C   C6        1.0  0.8247085380663327  0.007029699991655666  0.8407856400102105  1.0000
  C   C7        1.0  0.20241560221846625  0.1117125283134024  0.11969021664370157  1.0000
  C   C8        1.0  0.7975843982874811  0.8882874717133874  0.8803097829277782  1.0000
  C   C9        1.0  0.351206384549499  0.15083909939459145  0.11427153108542495  1.0000
  C   C10       1.0  0.6487936148211326  0.849160900634183  0.8857284684861243  1.0000
  C   C11       1.0  0.2868867485596975  0.7818207680943726  0.23082684759495048  1.0000
  C   C12       1.0  0.7131132522396479  0.21817923200746608  0.7691731529072195  1.0000
  C   C13       1.0  0.7321297028229156  0.32342167384637877  0.26894616992379494  1.0000
  C   C14       1.0  0.2678702976830317  0.6765783261804111  0.7310538296476847  1.0000
  C   C15       1.0  0.6398930531213262  0.43179538156606184  0.27729229746974315  1.0000
  C   C16       1.0  0.3601069465427032  0.5682046185377615  0.7227077030324963  1.0000
  C   C17       1.0  0.6602641929043277  0.49700677508230456  0.3951180255642073  1.0000
  C   C18       1.0  0.3397358067597017  0.5029932250215188  0.6048819749380322  1.0000
  C   C19       1.0  0.7669691429684422  0.461337692608243  0.5011726352882419  1.0000
  C   C20       1.0  0.2330308566955874  0.5386623074955803  0.49882736521399773  1.0000
  C   C21       1.0  0.8593255949692535  0.35623382885861743  0.48810639647574355  1.0000
  C   C22       1.0  0.1406744055366939  0.6437661711681724  0.5118936030957362  1.0000
  C   C23       1.0  0.8451894247502645  0.28542024057117293  0.37437989128821325  1.0000
  C   C24       1.0  0.15481057575568288  0.7145797594556169  0.6256201082832664  1.0000
  C   C25       1.0  0.5283006646157745  0.48792045591296557  0.1709219278166313  1.0000
  C   C26       1.0  0.471699334754857  0.5120795441158089  0.8290780717549179  1.0000
  C   C27       1.0  0.7845605632992898  0.5340510262569268  0.625297224580442  1.0000
  C   C28       1.0  0.2154394363647396  0.46594897384689643  0.3747027759217974  1.0000
  C   C29       1.0  0.9532147490610844  0.17573325011674162  0.372188368609649  1.0000
  C   C30       1.0  0.04678525030954696  0.8242667499120329  0.6278116309619002  1.0000
  C   C31       1.0  0.5407031453771146  0.11913105299524668  0.46783394106675946  1.0000
  C   C32       1.0  0.4592968551288328  0.8808689470315432  0.5321660585047203  1.0000
  C   C33       1.0  0.34597675166398667  0.9733976952233493  0.5042004493058384  1.0000
  C   C34       1.0  0.6540232491353586  0.026602304878489365  0.49579955119633157  1.0000
  C   C35       1.0  0.38670164699699733  0.09235901656746394  0.47227991886119275  1.0000
  C   C36       1.0  0.6132983538023479  0.9076409835343746  0.5277200816409772  1.0000
  N   N1        1.0  0.4436673162184514  0.9530027190046285  0.18513317187308884  1.0000
  N   N2        1.0  0.5563326834455781  0.04699728109919462  0.8148668286291506  1.0000
  N   N3        1.0  0.62797492446238  0.0906535636507696  0.14526190537396685  1.0000
  N   N4        1.0  0.3720250760435672  0.9093464363760201  0.8547380941975128  1.0000
  O   O1        1.0  0.8615098125609008  0.19238322939843075  0.10981601694546833  1.0000
  O   O2        1.0  0.13849018680973088  0.8076167706303436  0.8901839826260809  1.0000
  O   O3        1.0  0.6016251717933148  0.28573521311493555  0.02643010717136526  1.0000
  O   O4        1.0  0.3983748278707147  0.7142647869888877  0.9735698933308743  1.0000
  S   S1        1.0  0.7108588301187315  0.23049783437797317  0.12589297540080346  1.0000
  S   S2        1.0  0.2891411692519  0.7695021656508014  0.8741070241707457  1.0000
  I   I1        1.0  0.8046788883036815  0.8073543407280526  0.24711392336540278  1.0000
  I   I2        1.0  0.19532111136034802  0.1926456593757706  0.7528860771368366  1.0000
  I   I3        1.0  0.9252609998006629  0.5876886408734596  0.06757158064094104  1.0000
  I   I4        1.0  0.07473899956996873  0.4123113591553149  0.9324284189306081  1.0000
