data_image0
_chemical_formula_structural       H52C28N4O20S4
_chemical_formula_sum              "H52 C28 N4 O20 S4"
_cell_length_a       9.385263911961866
_cell_length_b       10.130125964569295
_cell_length_c       9.965632853651146
_cell_angle_alpha    90.0
_cell_angle_beta     90.38021029686024
_cell_angle_gamma    90.0

_space_group_name_H-M_alt    "P 1"
_space_group_IT_number       1

loop_
  _space_group_symop_operation_xyz
  'x, y, z'

loop_
  _atom_site_type_symbol
  _atom_site_label
  _atom_site_symmetry_multiplicity
  _atom_site_fract_x
  _atom_site_fract_y
  _atom_site_fract_z
  _atom_site_occupancy
  H   H1        1.0  0.3682298039039458  0.20352642377904132  0.10515141436612147  1.0000
  H   H2        1.0  0.6317701961852347  0.7035264235535112  0.39484858599963396  1.0000
  H   H3        1.0  0.6317701959431317  0.7964735767570531  0.8948485857813686  1.0000
  H   H4        1.0  0.3682298047273604  0.2964735759954286  0.6051514141511628  1.0000
  H   H5        1.0  0.35004228487851147  0.04049371167098225  0.14782197851064036  1.0000
  H   H6        1.0  0.6499577152106689  0.5404937114454522  0.3521780218551151  1.0000
  H   H7        1.0  0.6499577149685659  0.9595062888651122  0.8521780216368496  1.0000
  H   H8        1.0  0.35004228463640846  0.45950628810348765  0.647821978292375  1.0000
  H   H9        1.0  0.35525098308406117  0.08687614577331841  0.9823760934485454  1.0000
  H   H10       1.0  0.6447490175864309  0.5868761455477883  0.5176239064839862  1.0000
  H   H11       1.0  0.6447490178285339  0.9131238537756214  0.017623906702251457  1.0000
  H   H12       1.0  0.3552509822570869  0.41312385400115154  0.4823760926600388  1.0000
  H   H13       1.0  0.6152613910347805  0.3606590128077778  0.9258971424547618  1.0000
  H   H14       1.0  0.3847386085701938  0.8606590125822478  0.5741028574744629  1.0000
  H   H15       1.0  0.3847386088122968  0.6393409867411621  0.07410285769272813  1.0000
  H   H16       1.0  0.6152613912768835  0.13934098696669217  0.42589714267302736  1.0000
  H   H17       1.0  0.6556761412191459  0.5220002819801883  0.932564110818947  1.0000
  H   H18       1.0  0.34432385838582846  0.022000282205718417  0.567435889110278  1.0000
  H   H19       1.0  0.34432385862793147  0.4779997185559061  0.06743588932854334  1.0000
  H   H20       1.0  0.655676141461249  0.9779997183303761  0.4325641110372121  1.0000
  H   H21       1.0  0.6768799434605859  0.4270671051012878  0.07166801824915726  1.0000
  H   H22       1.0  0.3231200566285945  0.9270671058629123  0.4283319821165982  1.0000
  H   H23       1.0  0.3231200563864915  0.572932894447652  0.9283319818983329  1.0000
  H   H24       1.0  0.6768799432184828  0.07293289467318213  0.571668018030892  1.0000
  H   H25       1.0  0.7995848300782337  0.2213843349869294  0.15509548227715592  1.0000
  H   H26       1.0  0.20041517000738712  0.7213843347613993  0.3449045170851343  1.0000
  H   H27       1.0  0.20041516976528415  0.7786156655491651  0.8449045168668691  1.0000
  H   H28       1.0  0.7995848298396903  0.2786156647875406  0.6550954830623558  1.0000
  H   H29       1.0  0.8616867025637749  0.0869218174660119  0.05989524139236452  1.0000
  H   H30       1.0  0.13831329645988785  0.5869218172404819  0.44010475897008433  1.0000
  H   H31       1.0  0.1383132972833025  0.913078182082928  0.9401047587551256  1.0000
  H   H32       1.0  0.8616867033871897  0.41307818230845805  0.5598952411774059  1.0000
  H   H33       1.0  0.6999734043587994  0.16641579935888545  0.015417013865723032  1.0000
  H   H34       1.0  0.30002659573038093  0.6664157991333554  0.4845829865000325  1.0000
  H   H35       1.0  0.3000265954882779  0.833584201177209  0.9845829862817671  1.0000
  H   H36       1.0  0.6999734051822141  0.33358420140273903  0.5154170136507644  1.0000
  H   H37       1.0  0.8575871514788382  0.5792906850837469  0.8158804061623223  1.0000
  H   H38       1.0  0.14241284812613614  0.07929068530927698  0.6841195937669025  1.0000
  H   H39       1.0  0.14241284836823914  0.42070931545234747  0.18411959398516786  1.0000
  H   H40       1.0  0.8575871517173816  0.9207093152268174  0.3158804053771224  1.0000
  H   H41       1.0  0.10369370676735988  0.5252558397210642  0.7431289523489666  1.0000
  H   H42       1.0  0.8963062928376145  0.025255838959439614  0.7568710475802581  1.0000
  H   H43       1.0  0.8963062930797174  0.4747441608150304  0.25687104779852343  1.0000
  H   H44       1.0  0.1036937070094629  0.9747441605895003  0.24312895256723202  1.0000
  H   H45       1.0  0.21462554155932173  0.3116273924965176  0.8140369569768791  1.0000
  H   H46       1.0  0.7853744580456526  0.8116273922709876  0.6859630429523457  1.0000
  H   H47       1.0  0.7853744582877557  0.6883726070524222  0.185963043170611  1.0000
  H   H48       1.0  0.21462554180142468  0.18837260727795233  0.31403695719514446  1.0000
  H   H49       1.0  0.07839366951950287  0.1545853926670872  0.9533314319577416  1.0000
  H   H50       1.0  0.9216063300854714  0.6545853934287117  0.5466685679714832  1.0000
  H   H51       1.0  0.9216063303275747  0.8454146068818527  0.04666856818974853  1.0000
  H   H52       1.0  0.07839366976160589  0.34541460710738275  0.4533314321760069  1.0000
  C   C1        1.0  0.8089556853710929  0.18289880367531788  0.052349723872619956  1.0000
  C   C2        1.0  0.19104431471452799  0.6828988034497879  0.44765027548967024  1.0000
  C   C3        1.0  0.19104431447598455  0.817101195873622  0.9476502762748702  1.0000
  C   C4        1.0  0.8089556851325493  0.31710119609915205  0.5523497246578198  1.0000
  C   C5        1.0  0.8907996239544006  0.27559213969939006  0.9645244877243182  1.0000
  C   C6        1.0  0.10920037565413353  0.77559213947386  0.5354755132083716  1.0000
  C   C7        1.0  0.10920037589267696  0.7244078608367044  0.03547551242317176  1.0000
  C   C8        1.0  0.8907996241929439  0.22440786106223443  0.46452448693911846  1.0000
  C   C9        1.0  0.8327903884238538  0.3970121145646578  0.924555525070765  1.0000
  C   C10       1.0  0.16720961224663827  0.8970121153262822  0.5754444748617664  1.0000
  C   C11       1.0  0.16720961142322363  0.6029878849842821  0.07544447507672501  1.0000
  C   C12       1.0  0.8327903886659568  0.10298788520981213  0.4245555252890305  1.0000
  C   C13       1.0  0.9068918678415431  0.48636336677670117  0.8454310851501934  1.0000
  C   C14       1.0  0.09310813176343116  0.9863633665511711  0.6545689147790313  1.0000
  C   C15       1.0  0.09310813200553418  0.5136366337593933  0.15456891499729672  1.0000
  C   C16       1.0  0.9068918680836461  0.013636632997768785  0.34543108536845873  1.0000
  C   C17       1.0  0.044708687361052504  0.45532410713671817  0.8043676345368934  1.0000
  C   C18       1.0  0.9552913133094395  0.9553241078983427  0.6956323653956379  1.0000
  C   C19       1.0  0.9552913124860247  0.5446758924122217  0.19563236561059658  1.0000
  C   C20       1.0  0.04470868653763786  0.044675892637751825  0.3043676347518522  1.0000
  C   C21       1.0  0.1059894898408884  0.33574377869491834  0.8432421175130363  1.0000
  C   C22       1.0  0.8940105108296036  0.835743779456543  0.6567578824194951  1.0000
  C   C23       1.0  0.894010510006189  0.6642562208540215  0.15675788263445375  1.0000
  C   C24       1.0  0.10598948901747376  0.16425622107955157  0.34324211772799507  1.0000
  C   C25       1.0  0.029303647452338842  0.24714682016359776  0.921992388903021  1.0000
  C   C26       1.0  0.9706963521526355  0.7471468199380676  0.5780076110262037  1.0000
  C   C27       1.0  0.9706963523947385  0.7528531803724967  0.07800761124446902  1.0000
  C   C28       1.0  0.029303647694441853  0.25285318059802675  0.42199238912128645  1.0000
  N   N1        1.0  0.6881443737744102  0.4288645802821183  0.9674080653078034  1.0000
  N   N2        1.0  0.31185562583056414  0.9288645810437428  0.5325919346214214  1.0000
  N   N3        1.0  0.31185562607266715  0.5711354192668215  0.03259193483968685  1.0000
  N   N4        1.0  0.6881443740165132  0.07113541949235162  0.4674080655260686  1.0000
  O   O1        1.0  0.4227736155100253  0.1610927707816892  0.632932206405294  1.0000
  O   O2        1.0  0.5772263851604668  0.6610927705561592  0.8670677935272374  1.0000
  O   O3        1.0  0.5772263854025697  0.8389072287672505  0.36706779374550275  1.0000
  O   O4        1.0  0.4227736146866106  0.33890722899278075  0.13293220662025265  1.0000
  O   O5        1.0  0.4981804816717589  0.2690223280077316  0.8383901525880417  1.0000
  O   O6        1.0  0.5018195189987331  0.7690223277822016  0.6616098473444896  1.0000
  O   O7        1.0  0.5018195192408362  0.7309776715412082  0.16160984756275493  1.0000
  O   O8        1.0  0.49818048084834415  0.2309776717667383  0.33839015280300055  1.0000
  O   O9        1.0  0.6277002404901132  0.0748937350486596  0.7529583184185997  1.0000
  O   O10       1.0  0.3722997591148612  0.5748937348231296  0.747041681510625  1.0000
  O   O11       1.0  0.3722997593569642  0.9251062654874348  0.24704168172889038  1.0000
  O   O12       1.0  0.6277002407322162  0.4251062657129649  0.2529583186368651  1.0000
  O   O13       1.0  0.3909119227889558  0.04932116557557958  0.8468126215544182  1.0000
  O   O14       1.0  0.6090880768160185  0.5493211663372041  0.6531873783748067  1.0000
  O   O15       1.0  0.6090880770581216  0.9506788339733604  0.15318737859307202  1.0000
  O   O16       1.0  0.3909119230310588  0.4506788341988904  0.3468126217726834  1.0000
  O   O17       1.0  0.3233256744448125  0.11303585305897873  0.07981240760549793  1.0000
  O   O18       1.0  0.6766743256408083  0.6130358538206032  0.42018759175679227  1.0000
  O   O19       1.0  0.6766743253987053  0.8869641464899611  0.9201875915385269  1.0000
  O   O20       1.0  0.32332567527178674  0.38696414671549123  0.5798124083940044  1.0000
  S   S1        1.0  0.4856553853173683  0.14057716507975795  0.7710952211055598  1.0000
  S   S2        1.0  0.5143446153531236  0.6405771648542279  0.7289047788269716  1.0000
  S   S3        1.0  0.5143446155952267  0.8594228344691819  0.22890477904523687  1.0000
  S   S4        1.0  0.48565538449395373  0.35942283469471203  0.27109522132051855  1.0000
