data_image0
_chemical_formula_structural       H28C12N44O8
_chemical_formula_sum              "H28 C12 N44 O8"
_cell_length_a       14.748842654672188
_cell_length_b       9.011732671355094
_cell_length_c       6.776246596108151
_cell_angle_alpha    90.0
_cell_angle_beta     91.66871765063026
_cell_angle_gamma    90.0

_space_group_name_H-M_alt    "P 1"
_space_group_IT_number       1

loop_
  _space_group_symop_operation_xyz
  'x, y, z'

loop_
  _atom_site_type_symbol
  _atom_site_label
  _atom_site_symmetry_multiplicity
  _atom_site_fract_x
  _atom_site_fract_y
  _atom_site_fract_z
  _atom_site_occupancy
  H   H1        1.0  0.7470669574681243  0.4090432877261224  0.01099965797387999  1.0000
  H   H2        1.0  0.2529330426641592  0.9090432882057696  0.4890003424346377  1.0000
  H   H3        1.0  0.252933042976956  0.5909567121235075  0.9890003417131273  1.0000
  H   H4        1.0  0.7470669570997468  0.09095671164386028  0.5109996586786735  1.0000
  H   H5        1.0  0.5398664470554337  0.6521209144030584  0.7754638353048999  1.0000
  H   H6        1.0  0.46013355302414266  0.15212091503307565  0.7245361636113532  1.0000
  H   H7        1.0  0.4601335533896468  0.3478790854465716  0.22453616438210747  1.0000
  H   H8        1.0  0.5398664467426368  0.8478790848165544  0.27546383602641017  1.0000
  H   H9        1.0  0.7253990028647346  0.5542730806781586  0.4592309740114324  1.0000
  H   H10       1.0  0.27460099727042264  0.054273080198511355  0.040769024921537354  1.0000
  H   H11       1.0  0.274600996902045  0.44572691917147134  0.5407690256263309  1.0000
  H   H12       1.0  0.7253990031746579  0.9457269196511185  0.95923097476547  1.0000
  H   H13       1.0  0.6745994416067744  0.37884398866512653  0.43113682175321016  1.0000
  H   H14       1.0  0.32540055852550925  0.8788439880351092  0.06886317865530747  1.0000
  H   H15       1.0  0.3254005581600051  0.6211560111845035  0.5688631778845532  1.0000
  H   H16       1.0  0.6745994419195712  0.1211560118145207  0.9311368210316997  1.0000
  H   H17       1.0  0.051276245803162944  0.2323032047604234  0.7736338037581274  1.0000
  H   H18       1.0  0.9487237542735398  0.7323032041304062  0.7263661966336734  1.0000
  H   H19       1.0  0.9487237546390439  0.7676967950892065  0.22636619740442765  1.0000
  H   H20       1.0  0.05127624549323972  0.26769679571922383  0.27363380300409  1.0000
  H   H21       1.0  0.06449107850457411  0.4006678029272985  0.6344948143330996  1.0000
  H   H22       1.0  0.9355089215750022  0.9006678022972813  0.8655051845831534  1.0000
  H   H23       1.0  0.9355089212622055  0.5993321969223315  0.3655051853046637  1.0000
  H   H24       1.0  0.06449107819177734  0.09933219755234877  0.13449481505460995  1.0000
  H   H25       1.0  0.0240055991845302  0.4092027343111912  0.8797057344851088  1.0000
  H   H26       1.0  0.9759944008921727  0.9092027347908385  0.620294265906692  1.0000
  H   H27       1.0  0.9759944012605504  0.5907972655384387  0.12029426520189852  1.0000
  H   H28       1.0  0.024005598871733414  0.09079726505879154  0.3797057352066191  1.0000
  C   C1        1.0  0.6178966822501358  0.45295158865228613  0.8741409321204132  1.0000
  C   C2        1.0  0.3821033178294406  0.9529515891319332  0.6258590667958398  1.0000
  C   C3        1.0  0.38210331751664384  0.5470484111973439  0.12585906751735007  1.0000
  C   C4        1.0  0.617896681937339  0.047048410717696644  0.37414093284192357  1.0000
  C   C5        1.0  0.8017018302812192  0.37516026754171594  0.5547972648709677  1.0000
  C   C6        1.0  0.19829816979548362  0.8751602669116988  0.9452027355208331  1.0000
  C   C7        1.0  0.1982981694855604  0.624839732307914  0.44520273476679556  1.0000
  C   C8        1.0  0.8017018306495969  0.12483973293793127  0.0547972641661742  1.0000
  C   C9        1.0  0.024051259761875148  0.34328164547460116  0.7441921423306385  1.0000
  C   C10       1.0  0.9759487403177012  0.8432816448445839  0.7558078565856146  1.0000
  C   C11       1.0  0.9759487400049044  0.6567183543750288  0.25580785730712485  1.0000
  C   C12       1.0  0.024051260127379247  0.1567183550050461  0.24419214310139278  1.0000
  N   N1        1.0  0.5948129164949262  0.30931619275173716  0.8616322732636656  1.0000
  N   N2        1.0  0.4051870829034758  0.8093161932313844  0.6383677270788912  1.0000
  N   N3        1.0  0.4051870832718535  0.6906838070978928  0.1383677263740977  1.0000
  N   N4        1.0  0.5948129168633037  0.19068380661824552  0.3616322725588721  1.0000
  N   N5        1.0  0.5500531566740685  0.5353864840372036  0.79436092311403  1.0000
  N   N6        1.0  0.44994684340263436  0.0353864835575563  0.7056390772777709  1.0000
  N   N7        1.0  0.4499468430927111  0.4646135158124265  0.20563907652373337  1.0000
  N   N8        1.0  0.5500531563641453  0.9646135162920737  0.2943609223599924  1.0000
  N   N9        1.0  0.6982817450283695  0.495607385713585  0.9616071519933593  1.0000
  N   N10       1.0  0.30171825504833333  0.9956073861932323  0.5383928483984416  1.0000
  N   N11       1.0  0.3017182547384102  0.504392614136045  0.03839284764440407  1.0000
  N   N12       1.0  0.6982817453938736  0.004392613656397731  0.46160715276411357  1.0000
  N   N13       1.0  0.48340022109957326  0.44290333563565687  0.7315444682384302  1.0000
  N   N14       1.0  0.5165997789771296  0.9429033361153042  0.7684555321533707  1.0000
  N   N15       1.0  0.5165997786643328  0.5570966642139731  0.268455532874881  1.0000
  N   N16       1.0  0.48340022146795086  0.05709666373432587  0.23154446753363667  1.0000
  N   N17       1.0  0.5115247490799771  0.3097486889366705  0.7732798030504691  1.0000
  N   N18       1.0  0.4884752503184248  0.8097486883066533  0.7267201972920878  1.0000
  N   N19       1.0  0.4884752506868025  0.690251312022624  0.2267201965872943  1.0000
  N   N20       1.0  0.5115247494483548  0.19025131154297673  0.27327980234567545  1.0000
  N   N21       1.0  0.7271283893993933  0.6388433756251568  0.9670228084070676  1.0000
  N   N22       1.0  0.27287161067730964  0.13884337625517404  0.5329771919847331  1.0000
  N   N23       1.0  0.2728716103673864  0.36115662422447325  0.032977191230695695  1.0000
  N   N24       1.0  0.7271283897677708  0.8611566247041205  0.4670228077022741  1.0000
  N   N25       1.0  0.9317261286910117  0.3269215995903472  0.667897845230258  1.0000
  N   N26       1.0  0.0682738713885646  0.8269216000699944  0.832102153685995  1.0000
  N   N27       1.0  0.06827387107576781  0.6730784002592828  0.33210215440750535  1.0000
  N   N28       1.0  0.9317261290565159  0.17307839977963554  0.1678978460010123  1.0000
  N   N29       1.0  0.893921655524095  0.19654329024095044  0.6396502961763874  1.0000
  N   N30       1.0  0.10607834455260776  0.6965432907205977  0.8603497042154135  1.0000
  N   N31       1.0  0.10607834424268454  0.8034567096086795  0.360349703461376  1.0000
  N   N32       1.0  0.8939216558924727  0.3034567091290323  0.13965029547159383  1.0000
  N   N33       1.0  0.8107023147924693  0.2240417624035448  0.5678682569402889  1.0000
  N   N34       1.0  0.18929768528423352  0.7240417628831921  0.932131743451512  1.0000
  N   N35       1.0  0.18929768497431032  0.7759582374460852  0.43213174269747434  1.0000
  N   N36       1.0  0.8107023144796726  0.2759582380761024  0.06786825766179921  1.0000
  N   N37       1.0  0.7254012198558119  0.44363581519765966  0.49005036077360964  1.0000
  N   N38       1.0  0.2745987795981709  0.9436358156773069  0.009949639585664007  1.0000
  N   N39       1.0  0.2745987799080941  0.5563641846519704  0.5099496403397016  1.0000
  N   N40       1.0  0.7254012201686088  0.05636418417232313  0.9900503600520992  1.0000
  N   N41       1.0  0.8785981950766107  0.4431132475437201  0.6195595549410042  1.0000
  N   N42       1.0  0.1214018050000921  0.9431132480233673  0.8804404454507966  1.0000
  N   N43       1.0  0.12140180469016885  0.5568867523059099  0.38044044469675903  1.0000
  N   N44       1.0  0.8785981954421148  0.056886752935927154  0.1195595557117586  1.0000
  O   O1        1.0  0.6758721777244121  0.7373013739211249  0.8969500880328232  1.0000
  O   O2        1.0  0.3241278223551643  0.2373013734414776  0.6030499108834297  1.0000
  O   O3        1.0  0.3241278227206684  0.2626986259285051  0.10304991165418409  1.0000
  O   O4        1.0  0.6758721774116153  0.7626986264081524  0.3969500887543335  1.0000
  O   O5        1.0  0.8028991315123116  0.6607418658707984  0.04444577346772951  1.0000
  O   O6        1.0  0.1971008686228456  0.1607418665008157  0.45555422546524027  1.0000
  O   O7        1.0  0.19710086825446793  0.33925813397883153  0.9555542261700338  1.0000
  O   O8        1.0  0.802899131143934  0.8392581333488143  0.544445774172523  1.0000
