data_image0
_chemical_formula_structural       H20C30N4O10Br8
_chemical_formula_sum              "H20 C30 N4 O10 Br8"
_cell_length_a       8.861641257409445
_cell_length_b       8.991760264775875
_cell_length_c       12.49380674135666
_cell_angle_alpha    72.73857590523123
_cell_angle_beta     87.71347369654833
_cell_angle_gamma    73.0554327625974

_space_group_name_H-M_alt    "P 1"
_space_group_IT_number       1

loop_
  _space_group_symop_operation_xyz
  'x, y, z'

loop_
  _atom_site_type_symbol
  _atom_site_label
  _atom_site_symmetry_multiplicity
  _atom_site_fract_x
  _atom_site_fract_y
  _atom_site_fract_z
  _atom_site_occupancy
  H   H1        1.0  0.138982097921479  0.22632199265832342  0.25597202060993784  1.0000
  H   H2        1.0  0.861017902416908  0.7736780069278927  0.7440279797636322  1.0000
  H   H3        1.0  0.5045311626668271  0.9813034458564768  0.26552387262592764  1.0000
  H   H4        1.0  0.4954688376715601  0.018696553729739468  0.7344761277476424  1.0000
  H   H5        1.0  0.6552459764396054  0.8611948785082238  0.3443739804287637  1.0000
  H   H6        1.0  0.34475402384344705  0.13880512144294452  0.6556260191055789  1.0000
  H   H7        1.0  0.5394371331584611  0.7694734453199675  0.2314188362593967  1.0000
  H   H8        1.0  0.46056286599403745  0.23052655463914187  0.7685811632709476  1.0000
  H   H9        1.0  0.2331021530785842  0.42996877249327703  0.06887152542105819  1.0000
  H   H10       1.0  0.7668978472044681  0.5700312274578915  0.9311284741132846  1.0000
  H   H11       1.0  0.3330910837935391  0.39109809767165565  0.2934597224215904  1.0000
  H   H12       1.0  0.6669089164895132  0.6089019022795128  0.7065402771127524  1.0000
  H   H13       1.0  0.21917713722614696  0.6193506068850599  0.8742776920867074  1.0000
  H   H14       1.0  0.7808228619816864  0.38064939270909715  0.12572230828286454  1.0000
  H   H15       1.0  0.33456405716811105  0.8479711730873581  0.8344426820639417  1.0000
  H   H16       1.0  0.6654359431149411  0.15202882686381045  0.16555731747040103  1.0000
  H   H17       1.0  0.4700943994685341  0.8972935922520564  0.9840594166734223  1.0000
  H   H18       1.0  0.5299056008698529  0.10270640733415982  0.015940583700147944  1.0000
  H   H19       1.0  0.48457903000504415  0.5334991726221908  0.38287531807723063  1.0000
  H   H20       1.0  0.5154209699956432  0.4665008281260882  0.6171246822975422  1.0000
  C   C1        1.0  0.937498720181762  0.16941534635394118  0.46799863768778227  1.0000
  C   C2        1.0  0.06250128015662498  0.8305846532322751  0.532001362685788  1.0000
  C   C3        1.0  0.21075463224812493  0.2072968469504765  0.44378614224967977  1.0000
  C   C4        1.0  0.7892453680349272  0.792703153000692  0.5562138572846629  1.0000
  C   C5        1.0  0.8367509905723882  0.07051626563594739  0.4936434604024629  1.0000
  C   C6        1.0  0.16324900976599893  0.9294837339502687  0.5063565399711074  1.0000
  C   C7        1.0  0.10155620489144258  0.0995246269396473  0.47445013247765633  1.0000
  C   C8        1.0  0.8984437953916096  0.9004753730115213  0.5255498670566864  1.0000
  C   C9        1.0  0.07645888652401063  0.053458128075709564  0.07126079188641858  1.0000
  C   C10       1.0  0.9235411138143763  0.9465418715105068  0.9287392084871516  1.0000
  C   C11       1.0  0.056512507743912685  0.13459781479105445  0.9560445971033927  1.0000
  C   C12       1.0  0.9434874925391395  0.8654021851601141  0.0439554024309499  1.0000
  C   C13       1.0  0.01944626497233131  0.9187934927966553  0.11501377240497682  1.0000
  C   C14       1.0  0.9805537353107209  0.08120650715451327  0.8849862271293658  1.0000
  C   C15       1.0  0.16524791371172565  0.10482844339783198  0.14787144888164885  1.0000
  C   C16       1.0  0.8347520865713267  0.8951715565533365  0.8521285506526938  1.0000
  C   C17       1.0  0.28316095872850816  0.5312232547954259  0.050742401102044386  1.0000
  C   C18       1.0  0.716839041554544  0.46877674515574275  0.9492575984322982  1.0000
  C   C19       1.0  0.27773202980411127  0.636164413869582  0.9429304860056137  1.0000
  C   C20       1.0  0.7222679705342758  0.3638355857166341  0.057069514367956486  1.0000
  C   C21       1.0  0.3562472107128497  0.5630704488674405  0.13483830725211918  1.0000
  C   C22       1.0  0.6437527892878376  0.4369295518808385  0.8651616931226537  1.0000
  C   C23       1.0  0.4235754061432549  0.6930504487086881  0.11196370147803981  1.0000
  C   C24       1.0  0.5764245941397972  0.3069495512424803  0.8880362980563029  1.0000
  C   C25       1.0  0.343300234674359  0.7669118739165444  0.9197786642122532  1.0000
  C   C26       1.0  0.6566997656640282  0.2330881256696717  0.08022133616131712  1.0000
  C   C27       1.0  0.4181954721601188  0.797461607702253  0.0032716995625531437  1.0000
  C   C28       1.0  0.5818045281782682  0.20253839188396305  0.996728300811017  1.0000
  C   C29       1.0  0.4545598263542585  0.5643557647815147  0.29437900618692847  1.0000
  C   C30       1.0  0.5454401739287938  0.4356442351696538  0.7056209933474141  1.0000
  N   N1        1.0  0.48495044696347306  0.6873067408078682  0.2144452431042448  1.0000
  N   N2        1.0  0.5150495529818795  0.31269326030536276  0.7855547564313006  1.0000
  N   N3        1.0  0.3794769620362249  0.48615000715728673  0.2494979229524223  1.0000
  N   N4        1.0  0.6205230371716086  0.5138499924368701  0.7505020774171496  1.0000
  O   O1        1.0  0.23182280083979775  0.25878353222454215  0.3386418686123373  1.0000
  O   O2        1.0  0.7681771994985891  0.7412164673616741  0.6613581317612329  1.0000
  O   O3        1.0  0.27238018602472813  0.23977667846065634  0.51910642834338  1.0000
  O   O4        1.0  0.7276198143136591  0.7602233211255598  0.4808935720301902  1.0000
  O   O5        1.0  0.07208769712390471  0.2054850623758034  0.19749930125198226  1.0000
  O   O6        1.0  0.9279123032144824  0.7945149372104128  0.8025006991215881  1.0000
  O   O7        1.0  0.3101891816580715  0.05388593358364057  0.1603964123421651  1.0000
  O   O8        1.0  0.6898108175497619  0.9461140660105164  0.8396035880274069  1.0000
  O   O9        1.0  0.606642113437637  0.9002815811342938  0.2669765869477112  1.0000
  O   O10       1.0  0.3933578869007502  0.09971841845192238  0.7330234134258591  1.0000
  Br  Br1       1.0  0.6145623415081142  0.16107449234112475  0.49084966240248634  1.0000
  Br  Br2       1.0  0.3854376584925733  0.8389255084071541  0.5091503379722865  1.0000
  Br  Br3       1.0  0.8567581451784535  0.40027896559772114  0.4297343543409425  1.0000
  Br  Br4       1.0  0.14324185510459866  0.5997210343534474  0.5702656451934002  1.0000
  Br  Br5       1.0  0.04464333448494483  0.8119051448615314  0.271156424329368  1.0000
  Br  Br6       1.0  0.9553566657981074  0.1880948550896371  0.7288435752049746  1.0000
  Br  Br7       1.0  0.1301841868098374  0.3188104765262848  0.8983436719350079  1.0000
  Br  Br8       1.0  0.8698158135285496  0.6811895230599314  0.10165632843856241  1.0000
