data_image0
_chemical_formula_structural       H22C34N4O12Br12
_chemical_formula_sum              "H22 C34 N4 O12 Br12"
_cell_length_a       9.072111674124635
_cell_length_b       11.048877195694615
_cell_length_c       12.764074904405792
_cell_angle_alpha    105.93595075114135
_cell_angle_beta     106.34063494374718
_cell_angle_gamma    100.64836957977174

_space_group_name_H-M_alt    "P 1"
_space_group_IT_number       1

loop_
  _space_group_symop_operation_xyz
  'x, y, z'

loop_
  _atom_site_type_symbol
  _atom_site_label
  _atom_site_symmetry_multiplicity
  _atom_site_fract_x
  _atom_site_fract_y
  _atom_site_fract_z
  _atom_site_occupancy
  H   H1        1.0  0.7739047991368564  0.7492617942772176  0.48494271910964576  1.0000
  H   H2        1.0  0.22609520131960378  0.2507382061026913  0.5150572811559074  1.0000
  H   H3        1.0  0.5667372350206292  0.12068137502640175  0.8041850382760203  1.0000
  H   H4        1.0  0.43326276433406125  0.879318625352269  0.1958149619915103  1.0000
  H   H5        1.0  0.5780831326606671  0.5836380008893103  0.24537204878147315  1.0000
  H   H6        1.0  0.4219168671684287  0.4163619982272281  0.7546279506176424  1.0000
  H   H7        1.0  0.6599703378819878  0.3156511406471698  0.99203765275464  1.0000
  H   H8        1.0  0.3400296614727025  0.6843488597315008  0.007962347512890485  1.0000
  H   H9        1.0  0.3530640414389208  0.24206514694880524  0.9401175646942687  1.0000
  H   H10       1.0  0.6469359588145555  0.7579348525116769  0.05988243557509931  1.0000
  H   H11       1.0  0.86655788596633  0.61561936892648  0.2701521363043341  1.0000
  H   H12       1.0  0.1334421144901301  0.3843806314534291  0.729847863961219  1.0000
  H   H13       1.0  0.8824469515215043  0.5797870761058139  0.1297230010555609  1.0000
  H   H14       1.0  0.11755304783318615  0.4202129242728567  0.8702769992119697  1.0000
  H   H15       1.0  0.9117033284609395  0.46829827582629513  0.20618988488423068  1.0000
  H   H16       1.0  0.08829667199552059  0.5317017245536139  0.7938101153813225  1.0000
  H   H17       1.0  0.22862527513355946  0.5186792238235945  0.10961282237469411  1.0000
  H   H18       1.0  0.7713747235937668  0.4813207752917055  0.8903871770263989  1.0000
  H   H19       1.0  0.25335824376350147  0.4253477248565928  0.20332186719337014  1.0000
  H   H20       1.0  0.746641755591189  0.574652275522078  0.7966781330741604  1.0000
  H   H21       1.0  0.15133815430620515  0.3443617197233582  0.05204330912359692  1.0000
  H   H22       1.0  0.848661846150255  0.6556382806565507  0.9479566911419564  1.0000
  C   C1        1.0  0.6583150509371924  0.5800253294953314  0.5476014505795392  1.0000
  C   C2        1.0  0.34168494841749797  0.4199746708833393  0.45239854968799126  1.0000
  C   C3        1.0  0.4586499163815938  0.3780737495687294  0.41193842403451936  1.0000
  C   C4        1.0  0.5413500838718824  0.6219262498917526  0.5880615762348487  1.0000
  C   C5        1.0  0.6170289602652271  0.45862871145937845  0.45885417693211317  1.0000
  C   C6        1.0  0.3829710401912329  0.5413712889205305  0.5411458233334401  1.0000
  C   C7        1.0  0.8300741475216538  0.6648785912631691  0.6011984946707205  1.0000
  C   C8        1.0  0.1699258529348063  0.33512140911673993  0.39880150559483274  1.0000
  C   C9        1.0  0.8945425490825035  0.06763051470256211  0.9585917938627176  1.0000
  C   C10       1.0  0.10545745027218684  0.9323694856761087  0.04140820640481297  1.0000
  C   C11       1.0  0.11140774192601764  0.9709659938119806  0.9465077310400806  1.0000
  C   C12       1.0  0.8885922583274586  0.02903400564850154  0.05349226922928742  1.0000
  C   C13       1.0  0.7809584623119145  0.14150953947276879  0.9154532079358264  1.0000
  C   C14       1.0  0.219041537042776  0.8584904609059019  0.08454679233170415  1.0000
  C   C15       1.0  0.005164172829087437  0.03859919122845411  0.9050662785309518  1.0000
  C   C16       1.0  0.9948358276273725  0.9614008091514548  0.09493372173460149  1.0000
  C   C17       1.0  0.6065928615947864  0.12452823579122685  0.5637750265359585  1.0000
  C   C18       1.0  0.39340713865868976  0.8754717636692552  0.43622497373340957  1.0000
  C   C19       1.0  0.6461625881977948  0.03366286016902669  0.48341592984890464  1.0000
  C   C20       1.0  0.35383741115689565  0.966337140209644  0.516584070418626  1.0000
  C   C21       1.0  0.5779321293037745  0.8081213539724684  0.3312812547661651  1.0000
  C   C22       1.0  0.4220678709497018  0.19187864548801356  0.6687187455032029  1.0000
  C   C23       1.0  0.539592905478351  0.9083296455722402  0.41961850030861486  1.0000
  C   C24       1.0  0.4604070949781091  0.0916703548076689  0.5803814999569384  1.0000
  C   C25       1.0  0.6688752482425933  0.46724975527280255  0.1356012991628833  1.0000
  C   C26       1.0  0.33112475111209716  0.5327502451058681  0.8643987011046472  1.0000
  C   C27       1.0  0.4041532679286328  0.41422694343611205  0.10004223469683554  1.0000
  C   C28       1.0  0.5958467323248433  0.5857730560243699  0.8999577655725325  1.0000
  C   C29       1.0  0.43340534194117236  0.3252881094029  0.015250834964102296  1.0000
  C   C30       1.0  0.5665946585152878  0.6747118909770089  0.984749165301451  1.0000
  C   C31       1.0  0.8420868021634859  0.5365398635991642  0.18839734575285674  1.0000
  C   C32       1.0  0.15791319656384045  0.46346013551613585  0.8116026536482362  1.0000
  C   C33       1.0  0.25179309110621223  0.4265643712863004  0.11723858184646907  1.0000
  C   C34       1.0  0.7482069082484782  0.5734356290923703  0.8827614184210614  1.0000
  N   N1        1.0  0.5529451963307058  0.5005956813250731  0.1732271729836414  1.0000
  N   N2        1.0  0.4470548041257545  0.49940431905483584  0.8267728272819119  1.0000
  N   N3        1.0  0.5968281316171151  0.36043662061218906  0.03934243906807877  1.0000
  N   N4        1.0  0.4031718682119808  0.6395633785043492  0.9606575603310369  1.0000
  O   O1        1.0  0.9271387436134736  0.6499103520271262  0.6818231450798986  1.0000
  O   O2        1.0  0.07286125664000244  0.35008964743335574  0.31817685518946937  1.0000
  O   O3        1.0  0.8674126019036673  0.7554135656530858  0.5553508708531228  1.0000
  O   O4        1.0  0.13258739745102313  0.24458643472558492  0.44464912941440765  1.0000
  O   O5        1.0  0.6461131724803013  0.06483038442927314  0.83398315150767  1.0000
  O   O6        1.0  0.3538868277731749  0.9351696150312089  0.1660168487616979  1.0000
  O   O7        1.0  0.8166848965522125  0.26268876457179813  0.9580602897655096  1.0000
  O   O8        1.0  0.18331510390424763  0.7373112358081109  0.041939710500043706  1.0000
  O   O9        1.0  0.5324323498293986  0.8040488872223706  0.22661181451470097  1.0000
  O   O10       1.0  0.4675676502026813  0.19595111281359473  0.7733881848806  1.0000
  O   O11       1.0  0.6488378085084643  0.7291352556905935  0.36448527018418403  1.0000
  O   O12       1.0  0.3511621908462261  0.2708647446880772  0.6355147300833465  1.0000
  Br  Br1       1.0  0.7769550321731463  0.4060048922335952  0.4042392447061014  1.0000
  Br  Br2       1.0  0.22304496828331374  0.5939951081463137  0.5957607555594518  1.0000
  Br  Br3       1.0  0.4020442302165427  0.20899848108278785  0.2986729653595758  1.0000
  Br  Br4       1.0  0.5979557698155372  0.7910015189531774  0.701327034035725  1.0000
  Br  Br5       1.0  0.006937469033995684  0.09186630608263592  0.7763875763338922  1.0000
  Br  Br6       1.0  0.9930625314224645  0.9081336942972729  0.22361242393166095  1.0000
  Br  Br7       1.0  0.264263132175321  0.9319983222903403  0.8776683948966992  1.0000
  Br  Br8       1.0  0.7357368671793696  0.0680016780883304  0.12233160537083138  1.0000
  Br  Br9       1.0  0.8393424885872944  0.0797280716407282  0.4565082945559518  1.0000
  Br  Br10      1.0  0.16065751124180142  0.9202719274758101  0.5434917048431638  1.0000
  Br  Br11      1.0  0.7487151176478747  0.2943874289577701  0.6521785967686269  1.0000
  Br  Br12      1.0  0.25128488260560145  0.7056125705027119  0.34782140350074103  1.0000
