data_image0
_chemical_formula_structural       H44C38O12F6S2I2
_chemical_formula_sum              "H44 C38 O12 F6 S2 I2"
_cell_length_a       9.530538720404046
_cell_length_b       9.817997311178646
_cell_length_c       12.5816192923372
_cell_angle_alpha    90.47972370675944
_cell_angle_beta     88.42802972049026
_cell_angle_gamma    63.61858616122326

_space_group_name_H-M_alt    "P 1"
_space_group_IT_number       1

loop_
  _space_group_symop_operation_xyz
  'x, y, z'

loop_
  _atom_site_type_symbol
  _atom_site_label
  _atom_site_symmetry_multiplicity
  _atom_site_fract_x
  _atom_site_fract_y
  _atom_site_fract_z
  _atom_site_occupancy
  H   H1        1.0  0.32815280624324905  0.44480134389013093  0.7337439374883774  1.0000
  H   H2        1.0  0.6718471935793204  0.5551986563943997  0.26625606235271837  1.0000
  H   H3        1.0  0.9636533524174511  0.9106568017136382  0.7358949134783401  1.0000
  H   H4        1.0  0.03634664893697901  0.08934319744736695  0.26410508715162967  1.0000
  H   H5        1.0  0.7212630424437398  0.6751786596145002  0.839180336398105  1.0000
  H   H6        1.0  0.2787369573788295  0.32482134067003043  0.16081966344299092  1.0000
  H   H7        1.0  0.18463344176461383  0.3037705781926816  0.7801709355260517  1.0000
  H   H8        1.0  0.8153665580579558  0.696229422091849  0.2198290643150441  1.0000
  H   H9        1.0  0.5115747090352447  0.5348883540856597  0.8071289776830118  1.0000
  H   H10       1.0  0.4884252907873247  0.46511164619887096  0.192871022158084  1.0000
  H   H11       1.0  0.42607619512783995  0.8124032363451603  0.8396068345726246  1.0000
  H   H12       1.0  0.5739238046947294  0.1875967639393703  0.16039316526847108  1.0000
  H   H13       1.0  0.15157027314750127  0.998227284930381  0.8078382693912493  1.0000
  H   H14       1.0  0.8484297266750681  0.0017727153541495912  0.1921617304498465  1.0000
  H   H15       1.0  0.6853957589193368  0.5409888173553347  0.9979611596136471  1.0000
  H   H16       1.0  0.31460424090323263  0.459011182929196  0.0020388402274487847  1.0000
  H   H17       1.0  0.8978426451123305  0.2913146658180161  0.04704377620712395  1.0000
  H   H18       1.0  0.10215735467373242  0.7086853344836018  0.952956224429266  1.0000
  H   H19       1.0  0.14955036430830645  0.17661796336390137  0.9404946732362592  1.0000
  H   H20       1.0  0.8504496360317693  0.8233820357835198  0.0595053265985241  1.0000
  H   H21       1.0  0.9415102655770223  0.7895103602340574  0.3456602176247606  1.0000
  H   H22       1.0  0.05848973424554709  0.2104896400504732  0.6543397822163352  1.0000
  H   H23       1.0  0.9113695398109418  0.9675192236200136  0.40379351591875795  1.0000
  H   H24       1.0  0.08863045997512078  0.032480776681604276  0.5962064847176319  1.0000
  H   H25       1.0  0.4036268164321249  0.19418349784266958  0.3945162796533145  1.0000
  H   H26       1.0  0.5963731833904445  0.8058165024418611  0.6054837201877813  1.0000
  H   H27       1.0  0.48484888361262274  0.18272158628463583  0.5237832989735159  1.0000
  H   H28       1.0  0.5151511161734399  0.817278414016982  0.47621670166287383  1.0000
  H   H29       1.0  0.2564923942312838  0.7130432716655949  0.5327170771512264  1.0000
  H   H30       1.0  0.7435076055912857  0.2869567286189357  0.46728292268986943  1.0000
  H   H31       1.0  0.18643929607840715  0.8592103839130889  0.43700642113771787  1.0000
  H   H32       1.0  0.8135607037441623  0.14078961637144174  0.562993578703378  1.0000
  H   H33       1.0  0.18466106329947354  0.679723535661413  0.2983419694816806  1.0000
  H   H34       1.0  0.8153389365230959  0.32027646462311765  0.7016580303594151  1.0000
  H   H35       1.0  0.3720804331714288  0.6284204804575891  0.3494938169830817  1.0000
  H   H36       1.0  0.6279195677020019  0.37157951982343834  0.6505061828579066  1.0000
  H   H37       1.0  0.33323993503667754  0.05131606190719013  0.5913359310431039  1.0000
  H   H38       1.0  0.6667600647493851  0.9486839383944277  0.40866406959328594  1.0000
  H   H39       1.0  0.2680974960498716  0.05983728953766296  0.4571029515032188  1.0000
  H   H40       1.0  0.7319025037726979  0.9401627107468676  0.5428970483378771  1.0000
  H   H41       1.0  0.3504641361707337  0.46425601560368224  0.5417836330957563  1.0000
  H   H42       1.0  0.6495358647026969  0.5357439846773452  0.4582163667452319  1.0000
  H   H43       1.0  0.49264641958800304  0.3944209886100088  0.4337341323453202  1.0000
  H   H44       1.0  0.5073535802345664  0.6055790116745219  0.5662658674957757  1.0000
  C   C1        1.0  0.13701490602364955  0.6744437110766668  0.729698953249949  1.0000
  C   C2        1.0  0.86298509379892  0.3255562892078638  0.27030104659114673  1.0000
  C   C3        1.0  0.9523584740914768  0.49452995034474007  0.8009757013240316  1.0000
  C   C4        1.0  0.0476415257310925  0.5054700499397906  0.19902429851706424  1.0000
  C   C5        1.0  0.2891231794689613  0.5660273716861305  0.7491303652382475  1.0000
  C   C6        1.0  0.7108768208711145  0.43397262746129045  0.2508696345965358  1.0000
  C   C7        1.0  0.08417778542011141  0.8294621527408561  0.7505855395746311  1.0000
  C   C8        1.0  0.9158222144024579  0.1705378475436745  0.2494144602664646  1.0000
  C   C9        1.0  0.8122161938048454  0.5644142002482719  0.8607513671481501  1.0000
  C   C10       1.0  0.18778380601772393  0.43558580003625874  0.13924863269294568  1.0000
  C   C11       1.0  0.07468409695027277  0.35552079350089666  0.82679970366124  1.0000
  C   C12       1.0  0.9253159028722967  0.6444792067836339  0.17320029617985577  1.0000
  C   C13       1.0  0.3922426701610825  0.6173720459727376  0.7908292140250092  1.0000
  C   C14       1.0  0.6077573296614869  0.3826279543117931  0.20917078581608664  1.0000
  C   C15       1.0  0.34401771216815746  0.7722769095510125  0.810612158827791  1.0000
  C   C16       1.0  0.6559822881719183  0.22772308959640858  0.18938784100699238  1.0000
  C   C17       1.0  0.1903519965988992  0.877403652802216  0.7911488655136013  1.0000
  C   C18       1.0  0.8096480037411765  0.12259634634520487  0.20885113432118202  1.0000
  C   C19       1.0  0.7937644590515541  0.4889888805226584  0.9497390401939665  1.0000
  C   C20       1.0  0.20623554128852145  0.5110111186247627  0.05026095964081691  1.0000
  C   C21       1.0  0.9138227173301496  0.34903678672959354  0.9775435450738984  1.0000
  C   C22       1.0  0.08617728249241959  0.6509632135549371  0.02245645476719753  1.0000
  C   C23       1.0  0.05419849272090485  0.28366157334326064  0.9172313697037789  1.0000
  C   C24       1.0  0.9458015070651576  0.7163384269583573  0.08276863093261089  1.0000
  C   C25       1.0  0.6064211055961609  0.13606811904190214  0.9013859519147857  1.0000
  C   C26       1.0  0.3935788942264085  0.8639318812426285  0.09861404792631016  1.0000
  C   C27       1.0  0.9143347392863368  0.8561718859189263  0.42076745523865894  1.0000
  C   C28       1.0  0.08566526049972581  0.14382811438269152  0.579232545397731  1.0000
  C   C29       1.0  0.3853624061644328  0.25061954516009827  0.4736184580847349  1.0000
  C   C30       1.0  0.6146375936581367  0.7493804551244323  0.526381541756361  1.0000
  C   C31       1.0  0.18541086429502596  0.7523973411199286  0.462007037074753  1.0000
  C   C32       1.0  0.8145891360450497  0.24760265802749234  0.5379929627600303  1.0000
  C   C33       1.0  0.2541265680937106  0.6388739594642951  0.3694986631256963  1.0000
  C   C34       1.0  0.7458734317288588  0.36112604082023547  0.6305013367153995  1.0000
  C   C35       1.0  0.24321405594090814  0.12015747116072958  0.5350074284215964  1.0000
  C   C36       1.0  0.7567859438816611  0.8798425291238011  0.46499257141949946  1.0000
  C   C37       1.0  0.37735659037036284  0.40637092386862644  0.46305832087023435  1.0000
  C   C38       1.0  0.6226434094522066  0.5936290764159042  0.5369416789708614  1.0000
  O   O1        1.0  0.7225458302792745  0.06098008513894094  0.7076339716456282  1.0000
  O   O2        1.0  0.27745416954329494  0.9390199151455897  0.2923660281954675  1.0000
  O   O3        1.0  0.5807450545317923  0.9259601197657529  0.784550875367935  1.0000
  O   O4        1.0  0.4192549458082835  0.07403987938166805  0.21544912446684827  1.0000
  O   O5        1.0  0.4360480185045578  0.19341631396847944  0.7328907481127617  1.0000
  O   O6        1.0  0.5639519813180116  0.8065836863160512  0.2671092517283341  1.0000
  O   O7        1.0  0.24261527944006617  0.26513686630392597  0.5232112371375842  1.0000
  O   O8        1.0  0.7573847203825032  0.7348631339806047  0.47678876270351156  1.0000
  O   O9        1.0  0.031064464729349095  0.7788695915980193  0.49703742846836896  1.0000
  O   O10       1.0  0.9689355350932205  0.22113040868651138  0.5029625713727269  1.0000
  O   O11       1.0  0.26120506365455565  0.49240557573676264  0.3889784957238971  1.0000
  O   O12       1.0  0.7387949361680137  0.507594424547768  0.6110215041171988  1.0000
  F   F1        1.0  0.612451651296868  0.27216302106798473  0.8976927767134792  1.0000
  F   F2        1.0  0.3875483485257014  0.7278369792165459  0.10230722312761656  1.0000
  F   F3        1.0  0.4848965772574834  0.15408972485509162  0.9683902983306892  1.0000
  F   F4        1.0  0.5151034230825923  0.8459102742923295  0.03160970150409404  1.0000
  F   F5        1.0  0.7414427569757871  0.03391517534322557  0.9443792684758275  1.0000
  F   F6        1.0  0.25855724336428854  0.9660848238041954  0.05562073135895584  1.0000
  S   S1        1.0  0.5834879424715851  0.0710621870931158  0.7660664487482453  1.0000
  S   S2        1.0  0.41651205735098445  0.9289378131914147  0.23393355109285063  1.0000
  I   I1        1.0  0.9751004988471462  0.6064157720749054  0.6628164926044832  1.0000
  I   I2        1.0  0.024899500975423053  0.3935842282096253  0.3371835072366126  1.0000
