data_image0
_chemical_formula_structural       H16B2C16N2O6
_chemical_formula_sum              "H16 B2 C16 N2 O6"
_cell_length_a       6.637842002082417
_cell_length_b       7.5118653618083675
_cell_length_c       8.088942934649284
_cell_angle_alpha    101.36681053333353
_cell_angle_beta     107.73926123839696
_cell_angle_gamma    93.3737264245238

_space_group_name_H-M_alt    "P 1"
_space_group_IT_number       1

loop_
  _space_group_symop_operation_xyz
  'x, y, z'

loop_
  _atom_site_type_symbol
  _atom_site_label
  _atom_site_symmetry_multiplicity
  _atom_site_fract_x
  _atom_site_fract_y
  _atom_site_fract_z
  _atom_site_occupancy
  H   H1        1.0  0.738197787039401  0.8880491657251451  0.11520396219273785  1.0000
  H   H2        1.0  0.26180221381531144  0.11195083415232568  0.8847960386457967  1.0000
  H   H3        1.0  0.837085033839514  0.6230834911419518  0.24797552176915308  1.0000
  H   H4        1.0  0.1629149670151985  0.37691650873551896  0.7520244790693814  1.0000
  H   H5        1.0  0.33121578541531754  0.8996262758671264  0.9966057946474457  1.0000
  H   H6        1.0  0.6687842150209252  0.10037372505301533  0.003394204873926781  1.0000
  H   H7        1.0  0.4070830259541881  0.6344539890091222  0.13572252464196072  1.0000
  H   H8        1.0  0.5929169729729643  0.36554601190487523  0.8642774748735083  1.0000
  H   H9        1.0  0.8513832537351413  0.9712259154633998  0.4593780777267568  1.0000
  H   H10       1.0  0.14861674720879697  0.028774085751051753  0.5406219231270059  1.0000
  H   H11       1.0  0.30566444522208525  0.2621126968914771  0.4301454312657644  1.0000
  H   H12       1.0  0.6943355551249318  0.7378873026916839  0.56985456824038  1.0000
  H   H13       1.0  0.44175861104026515  0.4199804751436896  0.2866618254552747  1.0000
  H   H14       1.0  0.5582413877976615  0.5800195244333272  0.7133381740449662  1.0000
  H   H15       1.0  0.9801321541005502  0.3654812416856821  0.3295622014967099  1.0000
  H   H16       1.0  0.019867844737376485  0.6345187578913346  0.6704377980035311  1.0000
  B   B1        1.0  0.6988826104065954  0.2844224115772155  0.3630558808372186  1.0000
  B   B2        1.0  0.3011173904481171  0.7155775883002554  0.636944120001316  1.0000
  C   C1        1.0  0.8874972642960542  0.8376827143714523  0.11261230083042445  1.0000
  C   C2        1.0  0.11250273504956793  0.16231728549987434  0.8873877000022067  1.0000
  C   C3        1.0  0.025093832773930923  0.9215604078281155  0.040210691406101104  1.0000
  C   C4        1.0  0.9749061680807816  0.07843959204935533  0.9597893094324333  1.0000
  C   C5        1.0  0.9377809346979087  0.6902069682163657  0.18840910679629813  1.0000
  C   C6        1.0  0.062219064736939174  0.30979303299194144  0.8115908940515612  1.0000
  C   C7        1.0  0.2153355539698723  0.8453060196418667  0.05000361028942469  1.0000
  C   C8        1.0  0.7846644468848402  0.1546939802356043  0.9499963905491099  1.0000
  C   C9        1.0  0.2620602790713647  0.6974949213477588  0.12536235475131463  1.0000
  C   C10       1.0  0.737939719766562  0.30250507822925776  0.8746376447489264  1.0000
  C   C11       1.0  0.5919546867945937  0.13549183877407853  0.4332778053531955  1.0000
  C   C12       1.0  0.40804531255102844  0.864508161097248  0.5667221954794357  1.0000
  C   C13       1.0  0.696286361113754  0.9848351804291624  0.4760824890705845  1.0000
  C   C14       1.0  0.30371363932248874  0.015164820490979093  0.5239175104507879  1.0000
  C   C15       1.0  0.392753953168614  0.14746735981096482  0.45898794453500735  1.0000
  C   C16       1.0  0.607246047178403  0.8525326397721962  0.541012054971137  1.0000
  N   N1        1.0  0.1240493689297747  0.6202037410957993  0.19393627833768137  1.0000
  N   N2        1.0  0.8759506319249377  0.37979625878167145  0.8060637225008531  1.0000
  O   O1        1.0  0.17228727172636948  0.4798316481213005  0.266624206197772  1.0000
  O   O2        1.0  0.8277127271115572  0.520168351455716  0.7333757933024688  1.0000
  O   O3        1.0  0.5899257431189802  0.4135597914222343  0.2849524708232365  1.0000
  O   O4        1.0  0.4100742577357323  0.5864402084552366  0.715047530015298  1.0000
  O   O5        1.0  0.9074666652683466  0.27484774348998015  0.3739088885473296  1.0000
  O   O6        1.0  0.09253333507867045  0.7251522560931808  0.6260911109588146  1.0000
