data_image0
_chemical_formula_structural       H40C20N8O12
_chemical_formula_sum              "H40 C20 N8 O12"
_cell_length_a       5.702357838270713
_cell_length_b       18.13542094056695
_cell_length_c       6.791335023041568
_cell_angle_alpha    90.0
_cell_angle_beta     100.59460365947528
_cell_angle_gamma    90.0

_space_group_name_H-M_alt    "P 1"
_space_group_IT_number       1

loop_
  _space_group_symop_operation_xyz
  'x, y, z'

loop_
  _atom_site_type_symbol
  _atom_site_label
  _atom_site_symmetry_multiplicity
  _atom_site_fract_x
  _atom_site_fract_y
  _atom_site_fract_z
  _atom_site_occupancy
  H   H1        1.0  0.03423023635783901  0.5661740393922727  0.31453396369341147  1.0000
  H   H2        1.0  0.46576976352999866  0.06617403940790374  0.185466036739078  1.0000
  H   H3        1.0  0.9657697634178365  0.4338259605764653  0.6854660371715675  1.0000
  H   H4        1.0  0.5342302362456768  0.9338259605608343  0.8145339641259008  1.0000
  H   H5        1.0  0.8594684218689417  0.5613710778130817  0.501825379685726  1.0000
  H   H6        1.0  0.6405315777945716  0.06137107782871268  0.9981746216117425  1.0000
  H   H7        1.0  0.14053157790673387  0.4386289221556563  0.498174621179253  1.0000
  H   H8        1.0  0.3594684219811039  0.9386289221400254  0.0018253792532365567  1.0000
  H   H9        1.0  0.16106334672615957  0.6523463877001221  0.1589637986246981  1.0000
  H   H10       1.0  0.33893665317036775  0.1523463877157531  0.3410362003366858  1.0000
  H   H11       1.0  0.8389366530582055  0.3476536122686159  0.8410362007691753  1.0000
  H   H12       1.0  0.6610633466139973  0.847653612252985  0.6589637990571876  1.0000
  H   H13       1.0  0.7119680918634397  0.7845026402544162  0.028817179232554252  1.0000
  H   H14       1.0  0.788031907869544  0.28450264027004724  0.47118282017152485  1.0000
  H   H15       1.0  0.28803190792092537  0.2154973597143218  0.9711828201613192  1.0000
  H   H16       1.0  0.21196809191482108  0.7154973596986908  0.5288171792223485  1.0000
  H   H17       1.0  0.9766648599538261  0.6156936591983473  0.9375062287591733  1.0000
  H   H18       1.0  0.5233351397183766  0.11569365921397838  0.5624937710671895  1.0000
  H   H19       1.0  0.02333513983053887  0.3843063407703906  0.06249377063469997  1.0000
  H   H20       1.0  0.4766648600572989  0.8843063407547596  0.43750622979778947  1.0000
  H   H21       1.0  0.03790303706039917  0.7119805270754495  0.9597970685002791  1.0000
  H   H22       1.0  0.46209696276665774  0.21198052709108045  0.5402029323544941  1.0000
  H   H23       1.0  0.9620969644993295  0.28801947289328855  0.040202932647289136  1.0000
  H   H24       1.0  0.5379030370090179  0.7880194728776575  0.4597970685104848  1.0000
  H   H25       1.0  0.5563354568001334  0.7135783598522547  0.8738748011198744  1.0000
  H   H26       1.0  0.9436645446561225  0.21357835986788581  0.6261251989890778  1.0000
  H   H27       1.0  0.44366454475959516  0.2864216401164832  0.12612520002769398  1.0000
  H   H28       1.0  0.05633545512824255  0.7864216406522594  0.37387480040479554  1.0000
  H   H29       1.0  0.47445314912951203  0.7355988539620273  0.10845848682808024  1.0000
  H   H30       1.0  0.025546850758325683  0.23559885397765834  0.39154151360440925  1.0000
  H   H31       1.0  0.5255468506461635  0.26440114600671066  0.8915415140368987  1.0000
  H   H32       1.0  0.9744531490260394  0.7644011459910797  0.6084584857894642  1.0000
  H   H33       1.0  0.2641137866903942  0.5422098153787102  0.9339955798622587  1.0000
  H   H34       1.0  0.23588621314535219  0.04220981539434117  0.566004419521409  1.0000
  H   H35       1.0  0.7358862130939708  0.45779018459002785  0.06600441953161466  1.0000
  H   H36       1.0  0.7641137866390129  0.9577901845743969  0.4339955798724644  1.0000
  H   H37       1.0  0.5021450576825938  0.6185866226521286  0.5266771990727885  1.0000
  H   H38       1.0  0.997854941989609  0.11858662266775967  0.9733228007535744  1.0000
  H   H39       1.0  0.4978549421017712  0.38141337731660935  0.47332280032108476  1.0000
  H   H40       1.0  0.0021450577947560757  0.8814133773009784  0.026677198640299077  1.0000
  C   C1        1.0  0.7461167471976137  0.6392246012921932  0.29120183976190134  1.0000
  C   C2        1.0  0.75388325253537  0.13922460130782421  0.20879815964217768  1.0000
  C   C3        1.0  0.25388325258675126  0.3607753986765448  0.7087981596319719  1.0000
  C   C4        1.0  0.2461167472489951  0.8607753986609138  0.7912018397516957  1.0000
  C   C5        1.0  0.6238852822588581  0.730755385465329  0.029213524723752562  1.0000
  C   C6        1.0  0.8761147192581787  0.23075538548095997  0.47078647496291576  1.0000
  C   C7        1.0  0.37611471930956003  0.26924461450340903  0.9707864749527101  1.0000
  C   C8        1.0  0.12388528230154992  0.769244614487778  0.5292135261846524  1.0000
  C   C9        1.0  0.0032071082056353605  0.6624817339158164  0.042586965511604354  1.0000
  C   C10       1.0  0.49679289169089197  0.16248173393144746  0.45741303344977957  1.0000
  C   C11       1.0  0.9967928915787296  0.3375182660529215  0.957413033882269  1.0000
  C   C12       1.0  0.5032071080934731  0.8375182660372905  0.5425869659440938  1.0000
  C   C13       1.0  0.550853454508219  0.5465891987004583  0.7573463916624623  1.0000
  C   C14       1.0  0.9491465451639839  0.046589198716089256  0.7426536081639006  1.0000
  C   C15       1.0  0.4491465452674566  0.45341080126827976  0.24265360920251675  1.0000
  C   C16       1.0  0.050853454620381176  0.9534108012526488  0.25734639122997277  1.0000
  C   C17       1.0  0.44225747430716034  0.5219994612214418  0.9278578559394421  1.0000
  C   C18       1.0  0.05774252551989651  0.021999461237072748  0.5721421449153311  1.0000
  C   C19       1.0  0.5577425254685151  0.4780005387472963  0.07214214492553685  1.0000
  C   C20       1.0  0.942257474255779  0.9780005387316653  0.4278578559496478  1.0000
  N   N1        1.0  0.7921895962918125  0.6763379416555495  0.1294757443292364  1.0000
  N   N2        1.0  0.7078104052165347  0.1763379416711805  0.3705242568285375  1.0000
  N   N3        1.0  0.207810405267916  0.3236620583131885  0.8705242568183319  1.0000
  N   N4        1.0  0.2921895945591408  0.8236620582975576  0.6294757440364415  1.0000
  N   N5        1.0  0.8944007683230801  0.5852184564549848  0.3733181154213611  1.0000
  N   N6        1.0  0.6055992314099036  0.08521845647061586  0.12668188398271799  1.0000
  N   N7        1.0  0.1055992314612849  0.4147815435137532  0.6266818839725122  1.0000
  N   N8        1.0  0.3944007683744615  0.9147815434981222  0.8733181154111553  1.0000
  O   O1        1.0  0.5624034970842303  0.6562065605755917  0.3655669421472693  1.0000
  O   O2        1.0  0.9375965026487533  0.15620656059122268  0.13443305725680976  1.0000
  O   O3        1.0  0.43759650270013467  0.34379343939314627  0.634433057246604  1.0000
  O   O4        1.0  0.062403497135611725  0.8437934393775153  0.8655669421370636  1.0000
  O   O5        1.0  0.4248907134352538  0.5983545331295058  0.6509313170578314  1.0000
  O   O6        1.0  0.07510928640049258  0.0983545331451368  0.8490686823258364  1.0000
  O   O7        1.0  0.5751092863491112  0.4016454668392322  0.34906868233604194  1.0000
  O   O8        1.0  0.9248907133838724  0.9016454673750083  0.15093131706803709  1.0000
  O   O9        1.0  0.7430826007180054  0.5214958010069954  0.7225245831884441  1.0000
  O   O10       1.0  0.7569173989541975  0.02149580102262644  0.7774754166379186  1.0000
  O   O11       1.0  0.2569173990663597  0.47850419896174257  0.27747541620542915  1.0000
  O   O12       1.0  0.24308260083016764  0.9785041989461116  0.22252458275595474  1.0000
