data_image0
_chemical_formula_structural       H38C26N4O6I2
_chemical_formula_sum              "H38 C26 N4 O6 I2"
_cell_length_a       8.45525264407029
_cell_length_b       9.40351209248342
_cell_length_c       10.089978994507637
_cell_angle_alpha    71.63716108846111
_cell_angle_beta     79.87469658059811
_cell_angle_gamma    83.79454409604995

_space_group_name_H-M_alt    "P 1"
_space_group_IT_number       1

loop_
  _space_group_symop_operation_xyz
  'x, y, z'

loop_
  _atom_site_type_symbol
  _atom_site_label
  _atom_site_symmetry_multiplicity
  _atom_site_fract_x
  _atom_site_fract_y
  _atom_site_fract_z
  _atom_site_occupancy
  H   H1        1.0  0.16673150499871145  0.7544965433726022  0.14184968266191203  1.0000
  H   H2        1.0  0.8332684945889672  0.24550345620632932  0.8581503178064099  1.0000
  H   H3        1.0  0.0073220087775155065  0.8221163901902169  0.04161520732397319  1.0000
  H   H4        1.0  0.9926779920514305  0.17788361079801063  0.9583847921001087  1.0000
  H   H5        1.0  0.9061803550218624  0.41772676114883145  0.9784988703056265  1.0000
  H   H6        1.0  0.09381964574651995  0.5822732384288446  0.021501130172653805  1.0000
  H   H7        1.0  0.10068610628055087  0.43636122222304047  0.8707345048065085  1.0000
  H   H8        1.0  0.8993138934988  0.5636387776973875  0.1292654946056193  1.0000
  H   H9        1.0  0.9117227536065758  0.9899082170570256  0.193960746682084  1.0000
  H   H10       1.0  0.0882772461727752  0.010091782863402328  0.8060392527300438  1.0000
  H   H11       1.0  0.08383622663984049  0.9113551143885454  0.27684925673391686  1.0000
  H   H12       1.0  0.9161637728167291  0.08864488625944097  0.7231507437364009  1.0000
  H   H13       1.0  0.040126605474238346  0.6986331998942121  0.777727509363187  1.0000
  H   H14       1.0  0.9598733951630353  0.301366800752519  0.22227249111708894  1.0000
  H   H15       1.0  0.8449255254561623  0.6804108943911268  0.883052720153298  1.0000
  H   H16       1.0  0.15507447400040736  0.3195891062568596  0.11694728031701966  1.0000
  H   H17       1.0  0.8565023099819578  0.01860185664032347  0.42395194296750366  1.0000
  H   H18       1.0  0.14349768960572085  0.9813981429386079  0.5760480575008183  1.0000
  H   H19       1.0  0.7355344299863652  0.8728197698883506  0.42778897480438866  1.0000
  H   H20       1.0  0.2644655696013131  0.1271802296905808  0.5722110256639333  1.0000
  H   H21       1.0  0.715149845655857  0.7673698184907713  0.6653569716906987  1.0000
  H   H22       1.0  0.2848501549814167  0.23263018215595957  0.33464302878957736  1.0000
  H   H23       1.0  0.8328878485558225  0.9017479297743692  0.6864467919713773  1.0000
  H   H24       1.0  0.16711215090074724  0.09825207087361733  0.3135532084989404  1.0000
  H   H25       1.0  0.6468453833283005  0.5301589521955812  0.7102584012825965  1.0000
  H   H26       1.0  0.3531546176317544  0.4698410477235912  0.2897415981394895  1.0000
  H   H27       1.0  0.45872821095581207  0.3840401458255468  0.9126558327204135  1.0000
  H   H28       1.0  0.5412717886318665  0.6159598537533845  0.08734416774790842  1.0000
  H   H29       1.0  0.6794060741138022  0.20785650585471424  0.501214271134737  1.0000
  H   H30       1.0  0.3205939253427675  0.7921434947932721  0.49878572933558063  1.0000
  H   H31       1.0  0.7257295655369789  0.49984931678229994  0.3888812912915425  1.0000
  H   H32       1.0  0.2742704340506995  0.5001506827966314  0.6111187091767797  1.0000
  H   H33       1.0  0.8906660140272448  0.39057976795644145  0.46738712153113404  1.0000
  H   H34       1.0  0.109333986610029  0.6094202326902897  0.532612878949142  1.0000
  H   H35       1.0  0.814238583691546  0.5568049415311975  0.5128617388407002  1.0000
  H   H36       1.0  0.18576141726850903  0.443195058387975  0.4871382605813858  1.0000
  H   H37       1.0  0.4923645696672467  0.04167420748323181  0.7016864022467687  1.0000
  H   H38       1.0  0.5076354299809955  0.958325793506251  0.29831359716735484  1.0000
  C   C1        1.0  0.0407066609586062  0.7370856296240565  0.1380432296116003  1.0000
  C   C2        1.0  0.9592933384979635  0.2629143710239299  0.8619567708587176  1.0000
  C   C3        1.0  0.9730660593557837  0.41583922867360273  0.8746986494645509  1.0000
  C   C4        1.0  0.026933940231894708  0.5841607709053287  0.1253013510037711  1.0000
  C   C5        1.0  0.955361910992213  0.8962531529368924  0.27973935847499115  1.0000
  C   C6        1.0  0.04463808977616953  0.1037468466407836  0.7202606420032891  1.0000
  C   C7        1.0  0.9136874128458691  0.6754920409041105  0.7805715081577713  1.0000
  C   C8        1.0  0.08631258693348198  0.3245079590163175  0.21942849125435648  1.0000
  C   C9        1.0  0.860907413232984  0.9026038731235406  0.4187481002680314  1.0000
  C   C10       1.0  0.13909258635469457  0.09739612645539071  0.5812519002002907  1.0000
  C   C11       1.0  0.8400533513243357  0.7927268661891598  0.6651335609842158  1.0000
  C   C12       1.0  0.15994664944404682  0.20727313338851633  0.3348664394940644  1.0000
  C   C13       1.0  0.4597864255280221  0.20204105163622016  0.8210444823973266  1.0000
  C   C14       1.0  0.5402135740596564  0.7979589479427114  0.17895551807099533  1.0000
  C   C15       1.0  0.6077964259821147  0.4233776547320208  0.7122099885418467  1.0000
  C   C16       1.0  0.39220357360556374  0.5766223448469104  0.2877900119264754  1.0000
  C   C17       1.0  0.5029661018030164  0.3401787645921593  0.8244989637415551  1.0000
  C   C18       1.0  0.4970338978452258  0.6598212363973237  0.17550103567256845  1.0000
  C   C19       1.0  0.3533730161919897  0.11546604706762655  0.9369719002815985  1.0000
  C   C20       1.0  0.6466269833956889  0.8845339525113047  0.06302810018672352  1.0000
  C   C21       1.0  0.6279050410793234  0.23790953572293458  0.5964447120419213  1.0000
  C   C22       1.0  0.37209495870002757  0.7620904641974934  0.40355528737020646  1.0000
  C   C23       1.0  0.7824810894664617  0.46171284269848595  0.4847379792322876  1.0000
  C   C24       1.0  0.2175189113019209  0.5382871568791902  0.5152620212459925  1.0000
  C   C25       1.0  0.5232751912345985  0.15042093843320464  0.7047720323439833  1.0000
  C   C26       1.0  0.4767248085447523  0.8495790614872232  0.2952279670681444  1.0000
  N   N1        1.0  0.6687547077942336  0.372174315482468  0.6016406843524912  1.0000
  N   N2        1.0  0.3312452916623361  0.6278256851655184  0.39835931611782655  1.0000
  N   N3        1.0  0.266796722199862  0.04881941859552616  0.035056872944800824  1.0000
  N   N4        1.0  0.7332032775794889  0.9511805813249017  0.9649431264673268  1.0000
  O   O1        1.0  0.9066544456720109  0.5303806428180328  0.7647988387088447  1.0000
  O   O2        1.0  0.09334555496526273  0.46961935782869835  0.23520116177143127  1.0000
  O   O3        1.0  0.9353353112331952  0.8010698254369086  0.5314914374733766  1.0000
  O   O4        1.0  0.06466468835448323  0.19893017414202283  0.4685085629949455  1.0000
  O   O5        1.0  0.9377680360239375  0.7551290633807471  0.2604033276475796  1.0000
  O   O6        1.0  0.06223196375541346  0.24487093653968076  0.7395966717645482  1.0000
  I   I1        1.0  0.37756805399739624  0.7397125949135472  0.7884787376527169  1.0000
  I   I2        1.0  0.6224319455902821  0.26028740466538436  0.21152126281560515  1.0000
