data_image0
_chemical_formula_structural       H88C120N32O32S8I8
_chemical_formula_sum              "H88 C120 N32 O32 S8 I8"
_cell_length_a       8.408204238408489
_cell_length_b       11.938094132257225
_cell_length_c       31.83890668213738
_cell_angle_alpha    90.0
_cell_angle_beta     93.03422860393464
_cell_angle_gamma    90.0

_space_group_name_H-M_alt    "P 1"
_space_group_IT_number       1

loop_
  _space_group_symop_operation_xyz
  'x, y, z'

loop_
  _atom_site_type_symbol
  _atom_site_label
  _atom_site_symmetry_multiplicity
  _atom_site_fract_x
  _atom_site_fract_y
  _atom_site_fract_z
  _atom_site_occupancy
  H   H1        1.0  0.0007162341931480625  0.6466494604981278  0.8786866434970992  1.0000
  H   H2        1.0  0.9992837657743099  0.6466494604981278  0.6213133563695207  1.0000
  H   H3        1.0  0.5007162335155696  0.1466494610114939  0.8786866434845415  1.0000
  H   H4        1.0  0.4992837664518884  0.1466494610114939  0.6213133563820785  1.0000
  H   H5        1.0  0.999283766149728  0.3533505393127947  0.12131335650901626  1.0000
  H   H6        1.0  0.0007162345685662197  0.3533505393127947  0.3786866436365948  1.0000
  H   H7        1.0  0.49928376563844995  0.8533505396370832  0.12131335652372029  1.0000
  H   H8        1.0  0.5007162338909877  0.8533505396370832  0.3786866436240371  1.0000
  H   H9        1.0  0.17297755514600607  0.5669748784867564  0.936050181798798  1.0000
  H   H10       1.0  0.8270224448214519  0.5669748784867564  0.563949818067822  1.0000
  H   H11       1.0  0.6729775556572843  0.06697487900012249  0.936050181784094  1.0000
  H   H12       1.0  0.32702244431017374  0.06697487900012249  0.563949818082526  1.0000
  H   H13       1.0  0.8270224451968701  0.43302512132416604  0.06394981820731749  1.0000
  H   H14       1.0  0.1729775555214243  0.43302512132416604  0.43605018193829365  1.0000
  H   H15       1.0  0.32702244468559183  0.9330251208107999  0.06394981822202153  1.0000
  H   H16       1.0  0.6729775548438458  0.9330251208107999  0.4360501819257358  1.0000
  H   H17       1.0  0.21359237023699246  0.2612372373219283  0.8650134482201365  1.0000
  H   H18       1.0  0.7864076298016216  0.2612372373219283  0.6349865519609981  1.0000
  H   H19       1.0  0.7135923707482706  0.7612372376462169  0.8650134482054326  1.0000
  H   H20       1.0  0.28640762929034336  0.7612372376462169  0.6349865519757022  1.0000
  H   H21       1.0  0.7864076301058837  0.7387627624889941  0.13498655178597896  1.0000
  H   H22       1.0  0.21359237054125457  0.7387627624889941  0.3650134480451173  1.0000
  H   H23       1.0  0.2864076295946055  0.23876276216470563  0.13498655180068297  1.0000
  H   H24       1.0  0.713592369863676  0.23876276216470563  0.3650134480325596  1.0000
  H   H25       1.0  0.05286478538170901  0.3443600364058029  0.8060795887678258  1.0000
  H   H26       1.0  0.947135214585749  0.3443600364058029  0.6939204110987941  1.0000
  H   H27       1.0  0.5528647858929872  0.8443600367300915  0.8060795887531219  1.0000
  H   H28       1.0  0.44713521407447077  0.8443600367300915  0.693920411113498  1.0000
  H   H29       1.0  0.9471352149611671  0.6556399634051195  0.19392041123828965  1.0000
  H   H30       1.0  0.052864785757127185  0.6556399634051195  0.30607958890732145  1.0000
  H   H31       1.0  0.44713521444988896  0.155639963080831  0.19392041125299367  1.0000
  H   H32       1.0  0.5528647850795486  0.155639963080831  0.30607958889476367  1.0000
  H   H33       1.0  0.6258648219882972  0.7046263487963886  0.7018969496674311  1.0000
  H   H34       1.0  0.37413517797916085  0.7046263487963886  0.7981030501991886  1.0000
  H   H35       1.0  0.12586482147701894  0.20462634847210007  0.7018969496821353  1.0000
  H   H36       1.0  0.8741351784904391  0.20462634847210007  0.7981030501844847  1.0000
  H   H37       1.0  0.37413517835457905  0.29537365101453383  0.2981030503386843  1.0000
  H   H38       1.0  0.6258648223637153  0.29537365101453383  0.20189694980692682  1.0000
  H   H39       1.0  0.8741351776770006  0.7953736513388223  0.2981030503261265  1.0000
  H   H40       1.0  0.12586482185243708  0.7953736513388223  0.20189694982163087  1.0000
  H   H41       1.0  0.6988293782644376  0.8224487913418342  0.7315946683628518  1.0000
  H   H42       1.0  0.3011706217741765  0.8224487913418342  0.7684053318182829  1.0000
  H   H43       1.0  0.19882937894201608  0.3224487918552005  0.7315946683754095  1.0000
  H   H44       1.0  0.8011706210965981  0.3224487918552005  0.7684053318057251  1.0000
  H   H45       1.0  0.30117062207843864  0.1775512084690881  0.26840533164326374  1.0000
  H   H46       1.0  0.6988293785686996  0.1775512084690881  0.23159466818783261  1.0000
  H   H47       1.0  0.8011706214008602  0.6775512087933767  0.2684053316307059  1.0000
  H   H48       1.0  0.1988293780574214  0.6775512087933767  0.23159466820253666  1.0000
  H   H49       1.0  0.401532358166196  0.615778782488964  0.5876157042518172  1.0000
  H   H50       1.0  0.5984676418724182  0.615778782488964  0.9123842959293176  1.0000
  H   H51       1.0  0.9015323574886175  0.11577878216467548  0.5876157042392594  1.0000
  H   H52       1.0  0.0984676425499966  0.11577878216467548  0.9123842959418752  1.0000
  H   H53       1.0  0.5984676421766802  0.384221218159613  0.41238429575429836  1.0000
  H   H54       1.0  0.40153235847045804  0.384221218159613  0.08761570407679797  1.0000
  H   H55       1.0  0.098467641665402  0.884221217646247  0.41238429576900243  1.0000
  H   H56       1.0  0.9015323577928795  0.884221217646247  0.0876157040642402  1.0000
  H   H57       1.0  0.22898518218031574  0.5274628806105248  0.530606064712078  1.0000
  H   H58       1.0  0.7710148178582984  0.5274628806105248  0.9693939354690567  1.0000
  H   H59       1.0  0.7289851815027373  0.027462880286236283  0.5306060646995202  1.0000
  H   H60       1.0  0.27101481853587683  0.027462880286236283  0.9693939354816145  1.0000
  H   H61       1.0  0.7710148181625605  0.47253711920039765  0.4693939352940375  1.0000
  H   H62       1.0  0.2289851812957211  0.47253711920039765  0.030606064539205096  1.0000
  H   H63       1.0  0.27101481884013895  0.9725371195246861  0.4693939353065953  1.0000
  H   H64       1.0  0.7289851818069993  0.9725371195246861  0.030606064524501056  1.0000
  H   H65       1.0  0.1854986435549473  0.23188829299979524  0.6072211293437932  1.0000
  H   H66       1.0  0.8145013564125109  0.23188829299979524  0.8927788705228268  1.0000
  H   H67       1.0  0.6854986428773687  0.7318882933240838  0.6072211293312353  1.0000
  H   H68       1.0  0.3145013570900892  0.7318882933240838  0.8927788705353845  1.0000
  H   H69       1.0  0.8145013567879289  0.7681117068111272  0.3927788706623223  1.0000
  H   H70       1.0  0.1854986427415087  0.7681117068111272  0.107221129485435  1.0000
  H   H71       1.0  0.31450135746550745  0.26811170648683863  0.39277887067488015  1.0000
  H   H72       1.0  0.6854986432527869  0.26811170648683863  0.10722112947073097  1.0000
  H   H73       1.0  0.3580194503486197  0.32092214281071396  0.6639720193065153  1.0000
  H   H74       1.0  0.6419805496899944  0.32092214281071396  0.8360279808746195  1.0000
  H   H75       1.0  0.8580194496710412  0.8209221431350026  0.6639720192939574  1.0000
  H   H76       1.0  0.1419805503675729  0.8209221431350026  0.8360279808871771  1.0000
  H   H77       1.0  0.6419805499942566  0.6790778570002084  0.3360279806996002  1.0000
  H   H78       1.0  0.3580194494640251  0.6790778570002084  0.16397201913364234  1.0000
  H   H79       1.0  0.141980550671835  0.1790778566759199  0.33602798071215795  1.0000
  H   H80       1.0  0.8580194499753032  0.1790778566759199  0.16397201911893833  1.0000
  H   H81       1.0  0.6261991542835783  0.49961581923565  0.7153398284362  1.0000
  H   H82       1.0  0.3738008457550358  0.49961581923565  0.7846601717449346  1.0000
  H   H83       1.0  0.12619915377230012  0.9996158195599386  0.7153398284509042  1.0000
  H   H84       1.0  0.873800846266314  0.9996158195599386  0.7846601717302305  1.0000
  H   H85       1.0  0.37380084605929786  0.5003841805752725  0.2846601715699154  1.0000
  H   H86       1.0  0.6261991533989836  0.5003841805752725  0.21533982826332718  1.0000
  H   H87       1.0  0.8738008465705761  0.0003841802509838996  0.28466017155521134  1.0000
  H   H88       1.0  0.12619915407656215  0.0003841802509838996  0.21533982827588494  1.0000
  C   C1        1.0  0.013433180761933053  0.5007695050625012  0.8381742079833612  1.0000
  C   C2        1.0  0.986566819205525  0.5007695050625012  0.6618257918832587  1.0000
  C   C3        1.0  0.5134331812732112  0.0007695055758672472  0.838174207968657  1.0000
  C   C4        1.0  0.4865668186942468  0.0007695055758672472  0.6618257918979629  1.0000
  C   C5        1.0  0.9865668183920864  0.49923049474842124  0.16182579202490063  1.0000
  C   C6        1.0  0.013433181137351197  0.49923049474842124  0.3381742081228567  1.0000
  C   C7        1.0  0.4865668190696649  0.9992304942350552  0.1618257920374584  1.0000
  C   C8        1.0  0.5134331816486294  0.9992304942350552  0.3381742081081527  1.0000
  C   C9        1.0  0.050518011536031915  0.5629669992164199  0.874903201480814  1.0000
  C   C10       1.0  0.9494819885025821  0.5629669992164199  0.6250967987003208  1.0000
  C   C11       1.0  0.5505180108584534  0.06296699889213131  0.8749032014682562  1.0000
  C   C12       1.0  0.4494819891801607  0.06296699889213131  0.6250967987128785  1.0000
  C   C13       1.0  0.9494819888068443  0.4370330014321572  0.12509679852530153  1.0000
  C   C14       1.0  0.05051801184029401  0.4370330014321572  0.37490320130579485  1.0000
  C   C15       1.0  0.44948198829556607  0.9370330009187912  0.12509679854000558  1.0000
  C   C16       1.0  0.5505180111627155  0.9370330009187912  0.374903201293237  1.0000
  C   C17       1.0  0.1468548134695405  0.5181919024481946  0.9076503440276154  1.0000
  C   C18       1.0  0.8531451864979176  0.5181919024481946  0.5923496558390047  1.0000
  C   C19       1.0  0.6468548127919621  0.018191902961560646  0.9076503440150576  1.0000
  C   C20       1.0  0.35314518717549603  0.018191902961560646  0.5923496558515623  1.0000
  C   C21       1.0  0.8531451868733356  0.48180809736272795  0.09234965597850013  1.0000
  C   C22       1.0  0.14685481384495866  0.48180809736272795  0.407650344167111  1.0000
  C   C23       1.0  0.3531451863620575  0.9818080968493619  0.09234965599320416  1.0000
  C   C24       1.0  0.6468548131673801  0.9818080968493619  0.4076503441545532  1.0000
  C   C25       1.0  0.20528236843302827  0.4090644658936568  0.9041584335151228  1.0000
  C   C26       1.0  0.7947176316055858  0.4090644658936568  0.5958415666660117  1.0000
  C   C27       1.0  0.7052823677554498  0.9090644653802907  0.9041584335025651  1.0000
  C   C28       1.0  0.2947176322831643  0.9090644653802907  0.5958415666785696  1.0000
  C   C29       1.0  0.7947176319098479  0.5909355339172657  0.09584156649099262  1.0000
  C   C30       1.0  0.20528236754843368  0.5909355339172657  0.40415843334225  1.0000
  C   C31       1.0  0.2947176325874264  0.09093553443063178  0.09584156650355038  1.0000
  C   C32       1.0  0.7052823680597119  0.09093553443063178  0.404158433327546  1.0000
  C   C33       1.0  0.16952827704247136  0.34627293805886444  0.8677942152243556  1.0000
  C   C34       1.0  0.8304717229961427  0.34627293805886444  0.6322057849567789  1.0000
  C   C35       1.0  0.6695282775537496  0.8462729375454985  0.8677942152096516  1.0000
  C   C36       1.0  0.3304717224848645  0.8462729375454985  0.632205784971483  1.0000
  C   C37       1.0  0.8304717221115481  0.653727061752058  0.1322057847839061  1.0000
  C   C38       1.0  0.16952827734673345  0.653727061752058  0.3677942150493365  1.0000
  C   C39       1.0  0.3304717227891266  0.15372706226542404  0.1322057847964639  1.0000
  C   C40       1.0  0.6695282778580117  0.15372706226542404  0.36779421503463244  1.0000
  C   C41       1.0  0.07638887798167882  0.392254402429862  0.8348510560742657  1.0000
  C   C42       1.0  0.9236111219857792  0.392254402429862  0.6651489437923543  1.0000
  C   C43       1.0  0.576388878492957  0.8922544027541506  0.8348510560595614  1.0000
  C   C44       1.0  0.42361112147450103  0.8922544027541506  0.6651489438070584  1.0000
  C   C45       1.0  0.9236111211723407  0.6077455973810604  0.16514894393399618  1.0000
  C   C46       1.0  0.07638887835709694  0.6077455973810604  0.33485105621376116  1.0000
  C   C47       1.0  0.4236111218499192  0.10774559789442655  0.165148943946554  1.0000
  C   C48       1.0  0.5763888788683753  0.10774559789442655  0.33485105619905714  1.0000
  C   C49       1.0  0.910113318633752  0.5466729594940827  0.8043449181797324  1.0000
  C   C50       1.0  0.08988668133370598  0.5466729594940827  0.6956550816868875  1.0000
  C   C51       1.0  0.41011331812247387  0.046672959169794095  0.8043449181944365  1.0000
  C   C52       1.0  0.5898866818449843  0.046672959169794095  0.6956550816721835  1.0000
  C   C53       1.0  0.08988668170912414  0.4533270411544944  0.19565508182638308  1.0000
  C   C54       1.0  0.9101133178203135  0.4533270411544944  0.3043449183213743  1.0000
  C   C55       1.0  0.5898866822204023  0.9533270406411283  0.19565508181167904  1.0000
  C   C56       1.0  0.41011331849789195  0.9533270406411283  0.30434491833393207  1.0000
  C   C57       1.0  0.7592725485493848  0.6616348633621086  0.753703770132367  1.0000
  C   C58       1.0  0.24072745141807322  0.6616348633621086  0.7462962297342528  1.0000
  C   C59       1.0  0.25927254803810657  0.1616348638754747  0.7537037701470712  1.0000
  C   C60       1.0  0.7407274519293515  0.1616348638754747  0.7462962297195488  1.0000
  C   C61       1.0  0.24072745179349145  0.33836513644881383  0.2462962298737484  1.0000
  C   C62       1.0  0.759272548924803  0.33836513644881383  0.2537037702718627  1.0000
  C   C63       1.0  0.740727451115913  0.8383651359354478  0.2462962298611906  1.0000
  C   C64       1.0  0.2592725484135247  0.8383651359354478  0.2537037702865667  1.0000
  C   C65       1.0  0.39134021980988615  0.4729665512306031  0.6290893560444507  1.0000
  C   C66       1.0  0.608659780228728  0.4729665512306031  0.870910644136684  1.0000
  C   C67       1.0  0.8913402203211643  0.9729665515548916  0.6290893560297467  1.0000
  C   C68       1.0  0.1086597796462937  0.9729665515548916  0.8709106438368732  1.0000
  C   C69       1.0  0.6086597793441334  0.5270334485803193  0.370910643963811  1.0000
  C   C70       1.0  0.3913402201141482  0.5270334485803193  0.12908935586943157  1.0000
  C   C71       1.0  0.10865978002171187  0.027033448256030747  0.3709106439763688  1.0000
  C   C72       1.0  0.8913402206254264  0.027033448256030747  0.12908935585472753  1.0000
  C   C73       1.0  0.3533761741555712  0.5321569699165039  0.5918670132126361  1.0000
  C   C74       1.0  0.6466238258118868  0.5321569699165039  0.9081329866539838  1.0000
  C   C75       1.0  0.8533761746668493  0.03215697042986999  0.5918670131979321  1.0000
  C   C76       1.0  0.14662382530060855  0.03215697042986999  0.9081329866686877  1.0000
  C   C77       1.0  0.6466238249984482  0.46784302989441856  0.4081329867956256  1.0000
  C   C78       1.0  0.35337617453098935  0.46784302989441856  0.09186701335213177  1.0000
  C   C79       1.0  0.14662382567602672  0.9678430302187071  0.40813298680818333  1.0000
  C   C80       1.0  0.8533761750422676  0.9678430302187071  0.09186701333742772  1.0000
  C   C81       1.0  0.2582615264259806  0.4831870997242118  0.5598661734189628  1.0000
  C   C82       1.0  0.7417384735414774  0.4831870997242118  0.940133826447657  1.0000
  C   C83       1.0  0.7582615269372589  0.9831871000485004  0.5598661734042588  1.0000
  C   C84       1.0  0.24173847303019916  0.9831871000485004  0.9401338264623611  1.0000
  C   C85       1.0  0.7417384727280388  0.5168129000867107  0.4401338265892989  1.0000
  C   C86       1.0  0.2582615268013988  0.5168129000867107  0.05986617355845844  1.0000
  C   C87       1.0  0.2417384733344613  0.016812899762422083  0.44013382628734193  1.0000
  C   C88       1.0  0.7582615273126769  0.016812899762422083  0.05986617354375441  1.0000
  C   C89       1.0  0.20199247471871876  0.37468869992519005  0.5658709936054592  1.0000
  C   C90       1.0  0.7980075253198954  0.37468869992519005  0.9341290065756754  1.0000
  C   C91       1.0  0.701992475229997  0.8746887002494786  0.5658709935907551  1.0000
  C   C92       1.0  0.29800752480861714  0.8746887002494786  0.9341290065903795  1.0000
  C   C93       1.0  0.7980075244353008  0.6253112998857323  0.4341290064028025  1.0000
  C   C94       1.0  0.20199247502298082  0.6253112998857323  0.06587099343044003  1.0000
  C   C95       1.0  0.29800752511287926  0.1253113003990985  0.43412900641536034  1.0000
  C   C96       1.0  0.701992475534259  0.1253113003990985  0.065870993415736  1.0000
  C   C97       1.0  0.23503268726293078  0.3149319571740659  0.6029921761998096  1.0000
  C   C98       1.0  0.7649673127756833  0.3149319571740659  0.897007823981325  1.0000
  C   C99       1.0  0.735032687774209  0.8149319574983545  0.6029921761851056  1.0000
  C   C100      1.0  0.26496731219324904  0.8149319574983545  0.8970078236815143  1.0000
  C   C101      1.0  0.7649673118910887  0.6850680426368565  0.3970078238084521  1.0000
  C   C102      1.0  0.23503268756719287  0.6850680426368565  0.10299217602479048  1.0000
  C   C103      1.0  0.2649673125686672  0.18506804231256802  0.39700782382100985  1.0000
  C   C104      1.0  0.7350326881496272  0.18506804231256802  0.10299217632460117  1.0000
  C   C105      1.0  0.3308269816910701  0.36486349343070734  0.634542233102297  1.0000
  C   C106      1.0  0.6691730182763879  0.36486349343070734  0.8654577667643228  1.0000
  C   C107      1.0  0.8308269822735043  0.8648634937549959  0.6345422334021077  1.0000
  C   C108      1.0  0.1691730177651097  0.8648634937549959  0.865457766779027  1.0000
  C   C109      1.0  0.6691730174629493  0.6351365063802151  0.36545776690596476  1.0000
  C   C110      1.0  0.33082698206648825  0.6351365063802151  0.1345422332417926  1.0000
  C   C111      1.0  0.1691730180693718  0.1351365068935812  0.36545776660400775  1.0000
  C   C112      1.0  0.8308269825777664  0.1351365068935812  0.1345422332270885  1.0000
  C   C113      1.0  0.4957897683785047  0.5266834555283538  0.6626550371957942  1.0000
  C   C114      1.0  0.5042102315889533  0.5266834555283538  0.8373449626708257  1.0000
  C   C115      1.0  0.9957897688897829  0.026683456041719903  0.6626550371810902  1.0000
  C   C116      1.0  0.004210231077675128  0.026683456041719903  0.8373449626855298  1.0000
  C   C117      1.0  0.5042102319643715  0.4733165442825687  0.3373449628103213  1.0000
  C   C118      1.0  0.4957897687539229  0.4733165442825687  0.16265503733528983  1.0000
  C   C119      1.0  0.004210231453093271  0.9733165446068572  0.3373449628250253  1.0000
  C   C120      1.0  0.9957897680763443  0.9733165446068572  0.162655037322732  1.0000
  N   N1        1.0  0.8280843160177845  0.48759477815403923  0.7759496142444305  1.0000
  N   N2        1.0  0.1719156839496735  0.48759477815403923  0.7240503856221895  1.0000
  N   N3        1.0  0.3280843155065063  0.9875947784783278  0.7759496142591344  1.0000
  N   N4        1.0  0.6719156844609516  0.9875947784783278  0.7240503856074854  1.0000
  N   N5        1.0  0.17191568432509163  0.5124052216568832  0.22405038576168504  1.0000
  N   N6        1.0  0.8280843163932028  0.5124052216568832  0.27594961438392607  1.0000
  N   N7        1.0  0.6719156836475131  0.01240522133259462  0.22405038574912722  1.0000
  N   N8        1.0  0.3280843158819245  0.01240522133259462  0.2759496143986301  1.0000
  N   N9        1.0  0.7425462879846078  0.5512409114130284  0.7476343922128006  1.0000
  N   N10       1.0  0.2574537119828503  0.5512409114130284  0.7523656076538192  1.0000
  N   N11       1.0  0.24254628747332949  0.05124091192639455  0.7476343922275046  1.0000
  N   N12       1.0  0.7574537125652846  0.05124091192639455  0.75236560795363  1.0000
  N   N13       1.0  0.25745371235826847  0.448759088397894  0.25236560779331485  1.0000
  N   N14       1.0  0.7425462883600259  0.448759088397894  0.24763439235229623  1.0000
  N   N15       1.0  0.75745371168069  0.9487590887221825  0.25236560778075706  1.0000
  N   N16       1.0  0.24254628777759163  0.9487590887221825  0.24763439205248555  1.0000
  N   N17       1.0  0.6886569418258933  0.737094068158115  0.7280759636561699  1.0000
  N   N18       1.0  0.3113430581415647  0.737094068158115  0.77192403621045  1.0000
  N   N19       1.0  0.18865694131461505  0.23709406783382644  0.7280759636708738  1.0000
  N   N20       1.0  0.811343058652843  0.23709406783382644  0.7719240361957461  1.0000
  N   N21       1.0  0.31134305851698285  0.26290593249046207  0.27192403634994566  1.0000
  N   N22       1.0  0.6886569410124548  0.26290593249046207  0.22807596379781167  1.0000
  N   N23       1.0  0.8113430590282612  0.762905931977096  0.27192403633524165  1.0000
  N   N24       1.0  0.18865694169003325  0.762905931977096  0.22807596381036946  1.0000
  N   N25       1.0  0.10660837608366401  0.32056352610418026  0.531768869590623  1.0000
  N   N26       1.0  0.8933916238837939  0.32056352610418026  0.9682311302759969  1.0000
  N   N27       1.0  0.6066083765949423  0.8205635264284687  0.531768869575919  1.0000
  N   N28       1.0  0.3933916233725158  0.8205635264284687  0.9682311302907011  1.0000
  N   N29       1.0  0.8933916242592121  0.6794364737067422  0.46823113041549247  1.0000
  N   N30       1.0  0.10660837645908218  0.6794364737067422  0.03176886973011858  1.0000
  N   N31       1.0  0.39339162374793396  0.1794364733824537  0.46823113043019654  1.0000
  N   N32       1.0  0.6066083757815037  0.1794364733824537  0.03176886971756079  1.0000
  O   O1        1.0  0.530477604369537  0.6278743304382662  0.6608481826777919  1.0000
  O   O2        1.0  0.46952239559792097  0.6278743304382662  0.8391518171888279  1.0000
  O   O3        1.0  0.030477605047115587  0.1278743309516323  0.6608481826903497  1.0000
  O   O4        1.0  0.9695223949203426  0.1278743309516323  0.8391518171762703  1.0000
  O   O5        1.0  0.46952239478448243  0.3721256693726563  0.3391518173304699  1.0000
  O   O6        1.0  0.5304776047449552  0.3721256693726563  0.1608481828172875  1.0000
  O   O7        1.0  0.9695223952957607  0.8721256688592901  0.3391518173157658  1.0000
  O   O8        1.0  0.030477605422533725  0.8721256688592901  0.16084818282984525  1.0000
  O   O9        1.0  0.5450475773899812  0.45882972100206737  0.6933021804233502  1.0000
  O   O10       1.0  0.45495242257747676  0.45882972100206737  0.8066978194432697  1.0000
  O   O11       1.0  0.045047576878703054  0.9588297204887012  0.6933021804380542  1.0000
  O   O12       1.0  0.9549524230887549  0.9588297204887012  0.8066978194285657  1.0000
  O   O13       1.0  0.45495242295289495  0.5411702796465098  0.3066978195827653  1.0000
  O   O14       1.0  0.5450475765765427  0.5411702796465098  0.19330218056499204  1.0000
  O   O15       1.0  0.9549524234641732  0.04117027932222121  0.3066978195680613  1.0000
  O   O16       1.0  0.04504757725412121  0.04117027932222121  0.1933021805775498  1.0000
  O   O17       1.0  0.06993343414835436  0.3761251436162868  0.4997503092596659  1.0000
  O   O18       1.0  0.9300665664987838  0.3761251436162868  0.0002496905714304277  1.0000
  O   O19       1.0  0.569933433470776  0.8761251431029207  0.4997503092471081  1.0000
  O   O20       1.0  0.4300665659875057  0.8761251431029207  0.0002496905861344675  1.0000
  O   O21       1.0  0.9300665661945218  0.6238748570322903  0.5002496907464495  1.0000
  O   O22       1.0  0.06993343384409229  0.6238748570322903  0.9997503094346851  1.0000
  O   O23       1.0  0.43006656687210026  0.12387485670800172  0.5002496907590074  1.0000
  O   O24       1.0  0.5699334331665139  0.12387485670800172  0.9997503094221274  1.0000
  O   O25       1.0  0.06716134742745251  0.22079413772402695  0.5364208294535484  1.0000
  O   O26       1.0  0.9328386525400055  0.22079413772402695  0.9635791704130715  1.0000
  O   O27       1.0  0.567161346749874  0.7207941372106609  0.5364208294409906  1.0000
  O   O28       1.0  0.43283865321758397  0.7207941372106609  0.9635791704256293  1.0000
  O   O29       1.0  0.9328386529154237  0.7792058620868956  0.4635791705525671  1.0000
  O   O30       1.0  0.06716134661401396  0.7792058620868956  0.03642082959519022  1.0000
  O   O31       1.0  0.4328386535930022  0.2792058626002616  0.46357917056512493  1.0000
  O   O32       1.0  0.5671613471252922  0.2792058626002616  0.03642082958048618  1.0000
  S   S1        1.0  0.8855001787613797  0.6915022706760249  0.7973623258468159  1.0000
  S   S2        1.0  0.1144998212772345  0.6915022706760249  0.7026376743343189  1.0000
  S   S3        1.0  0.3855001794389581  0.1915022703517363  0.7973623258593735  1.0000
  S   S4        1.0  0.6144998205996559  0.1915022703517363  0.702637674321761  1.0000
  S   S5        1.0  0.11449982039263987  0.30849772997255226  0.20263767416144596  1.0000
  S   S6        1.0  0.8855001790656418  0.30849772997255226  0.2973623256717966  1.0000
  S   S7        1.0  0.614499820903918  0.8084977294591862  0.20263767414674191  1.0000
  S   S8        1.0  0.3855001797432202  0.8084977294591862  0.2973623256843544  1.0000
  I   I1        1.0  0.3449715772709986  0.336881055338067  0.953655605179166  1.0000
  I   I2        1.0  0.6550284226964594  0.336881055338067  0.5463443946874538  1.0000
  I   I3        1.0  0.8449715777822768  0.836881054824701  0.953655605164462  1.0000
  I   I4        1.0  0.1550284221851812  0.836881054824701  0.5463443947021579  1.0000
  I   I5        1.0  0.6550284218830209  0.6631189453105101  0.046344394829095664  1.0000
  I   I6        1.0  0.3449715776464167  0.6631189453105101  0.45365560531866167  1.0000
  I   I7        1.0  0.15502842256059937  0.16311894498622148  0.04634439484165344  1.0000
  I   I8        1.0  0.8449715781576951  0.16311894498622148  0.45365560530395765  1.0000
