data_image0
_chemical_formula_structural       H68C56N12O8S4I4
_chemical_formula_sum              "H68 C56 N12 O8 S4 I4"
_cell_length_a       4.699699106050299
_cell_length_b       31.883089923892342
_cell_length_c       10.592039331347419
_cell_angle_alpha    90.0
_cell_angle_beta     99.64962085823147
_cell_angle_gamma    90.0

_space_group_name_H-M_alt    "P 1"
_space_group_IT_number       1

loop_
  _space_group_symop_operation_xyz
  'x, y, z'

loop_
  _atom_site_type_symbol
  _atom_site_label
  _atom_site_symmetry_multiplicity
  _atom_site_fract_x
  _atom_site_fract_y
  _atom_site_fract_z
  _atom_site_occupancy
  H   H1        1.0  0.50976681345128  0.8380163407555372  0.06715879473391559  1.0000
  H   H2        1.0  0.490233186925986  0.338016340816578  0.432841205826826  1.0000
  H   H3        1.0  0.4902331862683561  0.16198365912238105  0.9328412050558121  1.0000
  H   H4        1.0  0.5097668131575536  0.661983659374986  0.5671587949205562  1.0000
  H   H5        1.0  0.7641276693971472  0.9046247279937066  0.13066069644744951  1.0000
  H   H6        1.0  0.23587233061621551  0.4046247280547475  0.3693393031556377  1.0000
  H   H7        1.0  0.23587233032248894  0.0953752718842116  0.8693393033422783  1.0000
  H   H8        1.0  0.7641276691034207  0.5953752718231707  0.6306606966340901  1.0000
  H   H9        1.0  0.3844874292010081  0.9068277089521916  0.47533151532500056  1.0000
  H   H10       1.0  0.6155125711762579  0.4068277086995866  0.024668485235741007  1.0000
  H   H11       1.0  0.6155125708825315  0.0931722912393725  0.5246684854223816  1.0000
  H   H12       1.0  0.38448742854337814  0.5931722911783316  0.9753315145539868  1.0000
  H   H13       1.0  0.12233631469072477  0.8421590493297466  0.4089771695120884  1.0000
  H   H14       1.0  0.8776636856865412  0.3421590493907875  0.09102283104865318  1.0000
  H   H15       1.0  0.8776636853928147  0.15784095086181751  0.5910228312352938  1.0000
  H   H16       1.0  0.12233631403309476  0.6578409508007766  0.9089771687410746  1.0000
  H   H17       1.0  0.8022944381823608  0.7080863324066391  0.9109620593940347  1.0000
  H   H18       1.0  0.19770556337098355  0.2080863321540341  0.5890379405813804  1.0000
  H   H19       1.0  0.19770556153727553  0.291913667784925  0.08903794039569313  1.0000
  H   H20       1.0  0.8022944388399906  0.7919136677238842  0.4109620601650484  1.0000
  H   H21       1.0  0.6067215833153775  0.6898375026542883  0.035026560705433245  1.0000
  H   H22       1.0  0.3932784166979851  0.18983750271532926  0.4649734388976539  1.0000
  H   H23       1.0  0.39327841640425854  0.3101624972236298  0.9649734390842946  1.0000
  H   H24       1.0  0.606721583021651  0.8101624974762348  0.5350265608920739  1.0000
  H   H25       1.0  0.13657835415977654  0.5705058811244413  0.4725882074896234  1.0000
  H   H26       1.0  0.8634216458535863  0.07050588118548226  0.027411792113463816  1.0000
  H   H27       1.0  0.8634216455598597  0.4294941187534769  0.5274117923001044  1.0000
  H   H28       1.0  0.1365783538660499  0.929494118692436  0.9725882076762639  1.0000
  H   H29       1.0  0.23969016436509535  0.5364389242331  0.35764877293698616  1.0000
  H   H30       1.0  0.7603098356482675  0.036438924294140904  0.14235122666610103  1.0000
  H   H31       1.0  0.7603098353545408  0.4635610759584641  0.6423512268527416  1.0000
  H   H32       1.0  0.23969016407136887  0.9635610758974232  0.8576487731236269  1.0000
  H   H33       1.0  0.7172246043831483  0.5246603851737919  0.4932626002018246  1.0000
  H   H34       1.0  0.28277539563021437  0.024660385234832764  0.006737399401262524  1.0000
  H   H35       1.0  0.2827753953364879  0.47533961470412633  0.5067373995879032  1.0000
  H   H36       1.0  0.7172246040894218  0.9753396149567314  0.9932626003884654  1.0000
  H   H37       1.0  0.8023490075877672  0.4916234711697113  0.3715309841451456  1.0000
  H   H38       1.0  0.19765099066206435  0.9916234711086703  0.12846901641654923  1.0000
  H   H39       1.0  0.19765099249577242  0.5083765287082069  0.6284690166022365  1.0000
  H   H40       1.0  0.8023490090575717  0.008376528769247835  0.8715309833731785  1.0000
  H   H41       1.0  0.684256377758085  0.5885722282499861  0.32469503004917505  1.0000
  H   H42       1.0  0.31574362261918104  0.0885722283110271  0.17530497051156654  1.0000
  H   H43       1.0  0.3157436223254545  0.411427771627932  0.6753049706982072  1.0000
  H   H44       1.0  0.6842563771004551  0.9114277715668911  0.8246950292781611  1.0000
  H   H45       1.0  0.7500586907449915  0.5492604221172703  0.21668680109476515  1.0000
  H   H46       1.0  0.24994130926837116  0.0492604221783113  0.28331319850832204  1.0000
  H   H47       1.0  0.2499413089746447  0.45073957776064777  0.7833131986949627  1.0000
  H   H48       1.0  0.750058690451265  0.9507395776996069  0.7166868012814058  1.0000
  H   H49       1.0  0.19551415410335893  0.5865831675864375  0.17795140237270873  1.0000
  H   H50       1.0  0.8044858462739072  0.08658316764747839  0.32204859818803283  1.0000
  H   H51       1.0  0.8044858456162772  0.4134168322914807  0.822048597417019  1.0000
  H   H52       1.0  0.19551415380963238  0.9134168322304399  0.6779514025593494  1.0000
  H   H53       1.0  0.8814862836708004  0.6168005524854474  0.13361067245763986  1.0000
  H   H54       1.0  0.11851371634256226  0.11680055223284243  0.3663893271454473  1.0000
  H   H55       1.0  0.11851371604883577  0.3831994477061167  0.866389327332088  1.0000
  H   H56       1.0  0.8814862833770739  0.8831994476450757  0.6336106726442805  1.0000
  H   H57       1.0  0.9936356737226073  0.6586025422920017  0.33551578906680646  1.0000
  H   H58       1.0  0.006364326290755218  0.15860254235304255  0.16448421053628068  1.0000
  H   H59       1.0  0.006364325997028715  0.34139745789956244  0.6644842107229213  1.0000
  H   H60       1.0  0.9936356734288808  0.8413974578385216  0.8355157892534472  1.0000
  H   H61       1.0  0.29044667537212604  0.6264864574820199  0.3913228983780654  1.0000
  H   H62       1.0  0.7095533246412367  0.12648645754306084  0.10867710122502174  1.0000
  H   H63       1.0  0.7095533243475102  0.3735135423958983  0.6086771014116623  1.0000
  H   H64       1.0  0.29044667507839944  0.8735135423348573  0.8913228985647059  1.0000
  H   H65       1.0  0.6122561843735467  0.7157635145926912  0.2684088200117552  1.0000
  H   H66       1.0  0.38774381600371943  0.21576351465373197  0.23159118054898642  1.0000
  H   H67       1.0  0.3877438153460894  0.28423648528522716  0.7315911797779726  1.0000
  H   H68       1.0  0.6122561840798201  0.7842364855378322  0.7684088201983957  1.0000
  C   C1        1.0  0.28955752028040377  0.8358791416897421  0.23124882004099326  1.0000
  C   C2        1.0  0.7104424800968624  0.33587914143713715  0.26875118051974833  1.0000
  C   C3        1.0  0.710442481566667  0.16412085850182193  0.7687511797477812  1.0000
  C   C4        1.0  0.2895575199866772  0.6641208584407811  0.7312488202276338  1.0000
  C   C5        1.0  0.47573085961214656  0.8537464820686027  0.1550614814565319  1.0000
  C   C6        1.0  0.5242691404012161  0.35374648181599766  0.3449385181465553  1.0000
  C   C7        1.0  0.5242691401074896  0.1462535181229615  0.8449385183331958  1.0000
  C   C8        1.0  0.47573085931842  0.6462535180619207  0.6550614816431725  1.0000
  C   C9        1.0  0.6212127129800943  0.8911411603399376  0.19086762077138222  1.0000
  C   C10       1.0  0.3787872852697371  0.3911411604009786  0.30913237979031266  1.0000
  C   C11       1.0  0.37878728673954176  0.1088588395379805  0.8091323790183454  1.0000
  C   C12       1.0  0.6212127148138025  0.6088588397905855  0.6908676209570696  1.0000
  C   C13       1.0  0.5839811222046328  0.9105973551905864  0.3053298591813839  1.0000
  C   C14       1.0  0.4160188781726334  0.41059735525162716  0.1946701413793577  1.0000
  C   C15       1.0  0.4160188778789068  0.08940264500097782  0.6946701415659983  1.0000
  C   C16       1.0  0.5839811215470028  0.5894026449399369  0.8053298584103701  1.0000
  C   C17       1.0  0.4079654724910635  0.8925205119054535  0.38452619850749253  1.0000
  C   C18       1.0  0.5920345278862026  0.39252051196649435  0.11547380205324909  1.0000
  C   C19       1.0  0.592034527592476  0.10747948797246477  0.6154738022398897  1.0000
  C   C20       1.0  0.40796547183343357  0.6074794879114239  0.8845261977364788  1.0000
  C   C21       1.0  0.2598241985504696  0.8556890955401277  0.34679539984107444  1.0000
  C   C22       1.0  0.7401758018267965  0.3556890956011686  0.15320460071966713  1.0000
  C   C23       1.0  0.7401758011691665  0.1443109046514364  0.6532045999486533  1.0000
  C   C24       1.0  0.2598241982567432  0.6443109045903955  0.8467954000277153  1.0000
  C   C25       1.0  0.1256227032618481  0.7980812537536385  0.19140557384552737  1.0000
  C   C26       1.0  0.874377297115418  0.29808125381467937  0.3085944267152142  1.0000
  C   C27       1.0  0.8743772968216915  0.20191874612427976  0.8085944269018549  1.0000
  C   C28       1.0  0.12562270260421815  0.7019187460632388  0.6914055730745136  1.0000
  C   C29       1.0  0.8717199435553042  0.7393256709518539  0.08112854746932581  1.0000
  C   C30       1.0  0.12828005645805843  0.2393256706992489  0.41887145213376137  1.0000
  C   C31       1.0  0.12828005616433188  0.26067432923971023  0.9188714523204019  1.0000
  C   C32       1.0  0.8717199432615776  0.7606743291786693  0.5811285476559664  1.0000
  C   C33       1.0  0.050392826710245885  0.5487662015120024  0.394530862106699  1.0000
  C   C34       1.0  0.9496071736670202  0.04876620157304331  0.10546913845404259  1.0000
  C   C35       1.0  0.9496071733732937  0.45123379867956165  0.6054691386406832  1.0000
  C   C36       1.0  0.05039282818005046  0.9512337986185208  0.8945308613347318  1.0000
  C   C37       1.0  0.8990429298792666  0.5126016242156237  0.4500689382200635  1.0000
  C   C38       1.0  0.10095707049799955  0.012601624276664529  0.049931062340678053  1.0000
  C   C39       1.0  0.10095706984036962  0.4873983756622946  0.5499310615696643  1.0000
  C   C40       1.0  0.8990429295855401  0.9873983759148997  0.9500689384067041  1.0000
  C   C41       1.0  0.8585617289551573  0.5722424433626738  0.28648275725605743  1.0000
  C   C42       1.0  0.14143827105820525  0.07224244342371466  0.21351724234702973  1.0000
  C   C43       1.0  0.14143827076447874  0.42775755682889033  0.7135172425336703  1.0000
  C   C44       1.0  0.858561728661431  0.9277575567678494  0.7864827574426981  1.0000
  C   C45       1.0  0.024339755245248697  0.603411570707991  0.21657760291870812  1.0000
  C   C46       1.0  0.9756602451320174  0.10341157076903186  0.2834223976420334  1.0000
  C   C47       1.0  0.975660244838291  0.39658842916992726  0.7834223978286741  1.0000
  C   C48       1.0  0.024339754587618716  0.8965884294225323  0.7165776021476943  1.0000
  C   C49       1.0  0.16005085501161442  0.6388701605968213  0.30302799182580925  1.0000
  C   C50       1.0  0.8399491450017483  0.13887016065786228  0.19697200777727794  1.0000
  C   C51       1.0  0.8399491447080217  0.3611298392810968  0.6969720079639186  1.0000
  C   C52       1.0  0.1600508547178879  0.8611298392200559  0.8030279920124499  1.0000
  C   C53       1.0  0.3522351817697393  0.6671278609060018  0.24060977932234143  1.0000
  C   C54       1.0  0.6477648186075268  0.1671278609670427  0.25939022123840016  1.0000
  C   C55       1.0  0.647764820441235  0.3328721392855623  0.7593902214240874  1.0000
  C   C56       1.0  0.35223518111210933  0.8328721392245214  0.7406097785513276  1.0000
  N   N1        1.0  0.9579129131927043  0.778602045449722  0.25999244159971463  1.0000
  N   N2        1.0  0.04208708682065833  0.278602045197117  0.24000755800337256  1.0000
  N   N3        1.0  0.04208708865436639  0.22139795474184215  0.7400075581890598  1.0000
  N   N4        1.0  0.9579129128989778  0.7213979546808013  0.7599924417863553  1.0000
  N   N5        1.0  0.8149144882111908  0.7452616856371236  0.199723963029393  1.0000
  N   N6        1.0  0.18508551216607522  0.2452616856981645  0.3002760375313486  1.0000
  N   N7        1.0  0.1850855115084452  0.25473831424079457  0.8002760367603348  1.0000
  N   N8        1.0  0.8149144879174642  0.7547383141797537  0.6997239632160335  1.0000
  N   N9        1.0  0.7525442474965318  0.7094516549053025  0.0019606950072291024  1.0000
  N   N10       1.0  0.2474557525168308  0.20945165465269755  0.49803930459585805  1.0000
  N   N11       1.0  0.24745575435053888  0.29054834528626156  0.9980393047815453  1.0000
  N   N12       1.0  0.7525442472028053  0.7905483452252207  0.5019606951938698  1.0000
  O   O1        1.0  0.4852302481591654  0.6966006849717716  0.31751290668188586  1.0000
  O   O2        1.0  0.5147697497267627  0.1966006850328126  0.18248709292215462  1.0000
  O   O3        1.0  0.5147697515604708  0.3033993149061465  0.682487093107842  1.0000
  O   O4        1.0  0.4852302499928734  0.8033993148451056  0.8175129068675732  1.0000
  O   O5        1.0  0.3838860256019391  0.6626467986770572  0.1277703182510204  1.0000
  O   O6        1.0  0.616113974775327  0.16264679873809806  0.3722296823097212  1.0000
  O   O7        1.0  0.6161139766090351  0.3373532012008611  0.8722296824954084  1.0000
  O   O8        1.0  0.3838860253082126  0.8373532011398201  0.6277703184376611  1.0000
  S   S1        1.0  0.1194741969629132  0.7753557390143335  0.040484230267978004  1.0000
  S   S2        1.0  0.8805258034143528  0.2753557390753745  0.45951577029276364  1.0000
  S   S3        1.0  0.8805258031206263  0.22464426117723058  0.9595157704794043  1.0000
  S   S4        1.0  0.11947419630528323  0.7246442611161896  0.5404842294969642  1.0000
  I   I1        1.0  0.7920629435658806  0.9676825810687751  0.36156524688789454  1.0000
  I   I2        1.0  0.20793705432004744  0.467682581129816  0.13843475271614591  1.0000
  I   I3        1.0  0.2079370561537555  0.03231741880914312  0.6384347529018332  1.0000
  I   I4        1.0  0.7920629453995888  0.5323174187481022  0.861565247073582  1.0000
