data_image0
_chemical_formula_structural       H44C40O12Cl4
_chemical_formula_sum              "H44 C40 O12 Cl4"
_cell_length_a       9.743929752441288
_cell_length_b       10.175825096621962
_cell_length_c       11.219190963848549
_cell_angle_alpha    72.8571340976763
_cell_angle_beta     71.56871427122537
_cell_angle_gamma    79.73551600891346

_space_group_name_H-M_alt    "P 1"
_space_group_IT_number       1

loop_
  _space_group_symop_operation_xyz
  'x, y, z'

loop_
  _atom_site_type_symbol
  _atom_site_label
  _atom_site_symmetry_multiplicity
  _atom_site_fract_x
  _atom_site_fract_y
  _atom_site_fract_z
  _atom_site_occupancy
  H   H1        1.0  0.3455528998056094  0.1982674440038113  0.5663015164888752  1.0000
  H   H2        1.0  0.6544470995058924  0.8017325556568825  0.43369848361473295  1.0000
  H   H3        1.0  0.18080965379472938  0.4243789909571908  0.3591537679033559  1.0000
  H   H4        1.0  0.8191903465423309  0.5756210087099306  0.6408462321988934  1.0000
  H   H5        1.0  0.10189949897530316  0.7562825835641104  0.30462674147532587  1.0000
  H   H6        1.0  0.8981005011693215  0.2437174171013802  0.6953732586280894  1.0000
  H   H7        1.0  0.08547336984293934  0.8570061429362968  0.09816335619578913  1.0000
  H   H8        1.0  0.9145266304941211  0.14299385673082457  0.9018366439064601  1.0000
  H   H9        1.0  0.09300205786543952  0.819372255245154  0.8868904861584574  1.0000
  H   H10       1.0  0.9069979424716208  0.18062774442196744  0.11310951394379189  1.0000
  H   H11       1.0  0.15188693934484798  0.5819566753896908  0.8526225412341992  1.0000
  H   H12       1.0  0.8481130609922124  0.4180433242774305  0.1473774588680499  1.0000
  H   H13       1.0  0.2069709257683596  0.385258382047301  0.030178707914278013  1.0000
  H   H14       1.0  0.7930290745687008  0.6147416176198204  0.9698212921879712  1.0000
  H   H15       1.0  0.7763487862090931  0.017248413582382095  0.42214377777581225  1.0000
  H   H16       1.0  0.2236512139355317  0.9827515870831084  0.577856222327603  1.0000
  H   H17       1.0  0.6054350197523612  0.2049171387323301  0.5040835083976485  1.0000
  H   H18       1.0  0.3945649793667047  0.7950828619267329  0.4959164917071257  1.0000
  H   H19       1.0  0.7007949830898782  0.42492488088910796  0.48548163370830955  1.0000
  H   H20       1.0  0.2992050170547465  0.5750751197763825  0.5145183663951057  1.0000
  H   H21       1.0  0.9583429231973966  0.45988917319774836  0.38182794656478286  1.0000
  H   H22       1.0  0.04165707694722822  0.5401108274677422  0.6181720535386325  1.0000
  H   H23       1.0  0.1784081265969856  0.02876491008903435  0.27824674314401915  1.0000
  H   H24       1.0  0.8215918737400747  0.971235089578087  0.7217532569582301  1.0000
  H   H25       1.0  0.431826840314399  0.017183138087580162  0.6778815057884793  1.0000
  H   H26       1.0  0.5681731598302256  0.9828168625779105  0.322118494314936  1.0000
  H   H27       1.0  0.27868501661934547  0.33988176584376567  0.8546903177103299  1.0000
  H   H28       1.0  0.7213149826921562  0.6601182338169281  0.1453096823932783  1.0000
  H   H29       1.0  0.35772715602451144  0.36301539751497713  0.6846453432325171  1.0000
  H   H30       1.0  0.6422728443125489  0.6369846021521443  0.31535465686973213  1.0000
  H   H31       1.0  0.18147391166856425  0.303207794137222  0.7605856553288665  1.0000
  H   H32       1.0  0.818526088668496  0.6967922055298995  0.2394143447733828  1.0000
  H   H33       1.0  0.5625519336584538  0.03241834129413505  0.81981101377272  1.0000
  H   H34       1.0  0.437448065653048  0.967581658366559  0.180188986330888  1.0000
  H   H35       1.0  0.5076462002517972  0.1685327792510495  0.898998799486457  1.0000
  H   H36       1.0  0.4923538000852634  0.8314672204160718  0.10100120061579212  1.0000
  H   H37       1.0  0.5814350326775011  0.2076921360184223  0.7274961356661352  1.0000
  H   H38       1.0  0.4185649674671236  0.7923078646470684  0.27250386443728  1.0000
  H   H39       1.0  0.31275717376563333  0.9484223950720535  0.930258697012555  1.0000
  H   H40       1.0  0.6872428253534326  0.051577605587009634  0.0697413030922191  1.0000
  H   H41       1.0  0.1565841544894084  0.058546823238961536  0.9008890394244258  1.0000
  H   H42       1.0  0.8434158458476521  0.9414531764281598  0.09911096067782339  1.0000
  H   H43       1.0  0.24801630673637717  0.08945262022259023  0.003783675021477559  1.0000
  H   H44       1.0  0.7519836936006831  0.9105473794445311  0.9962163250807718  1.0000
  C   C1        1.0  0.3947764764888654  0.23075845904647452  0.376805003722796  1.0000
  C   C2        1.0  0.6052235228226364  0.7692415406142195  0.6231949963808121  1.0000
  C   C3        1.0  0.3828899449844095  0.3457319045708035  0.2527651081230977  1.0000
  C   C4        1.0  0.6171100543270923  0.6542680950898904  0.7472348919805105  1.0000
  C   C5        1.0  0.21976413763777725  0.3935983028804788  0.26722555549778937  1.0000
  C   C6        1.0  0.7802358625068476  0.6064016977850119  0.7327744446056259  1.0000
  C   C7        1.0  0.18458120867149172  0.5102056792452909  0.1601442617736759  1.0000
  C   C8        1.0  0.8154187916655689  0.48979432042183063  0.8398557383285732  1.0000
  C   C9        1.0  0.14695892811195713  0.6438489913261727  0.18063970155920278  1.0000
  C   C10       1.0  0.8530410722251034  0.3561510083409486  0.8193602985430465  1.0000
  C   C11       1.0  0.11395375906352175  0.7542659030379913  0.08139889893110888  1.0000
  C   C12       1.0  0.8860462402479801  0.24573409662270257  0.9186011011724993  1.0000
  C   C13       1.0  0.11733405199386507  0.7321489579817475  0.9637225714410144  1.0000
  C   C14       1.0  0.8826659483431955  0.2678510416853738  0.03627742866123489  1.0000
  C   C15       1.0  0.1513852276412165  0.5996796347855791  0.9438312251698002  1.0000
  C   C16       1.0  0.8486147725034081  0.40032036587991154  0.0561687749336151  1.0000
  C   C17       1.0  0.18398221615167257  0.48988480075979574  0.04246042831305609  1.0000
  C   C18       1.0  0.8160177841853878  0.5101151989073257  0.9575395717891931  1.0000
  C   C19       1.0  0.015655269691722755  0.2572604513576585  0.3428529731500689  1.0000
  C   C20       1.0  0.9843447306453377  0.7427395483094629  0.6571470269521804  1.0000
  C   C21       1.0  0.9635790386884832  0.13030417555730422  0.35673055225236106  1.0000
  C   C22       1.0  0.036420960733577236  0.8696958253667619  0.6432694468806641  1.0000
  C   C23       1.0  0.8144562715498014  0.11456569455845754  0.41415172354283225  1.0000
  C   C24       1.0  0.18554372859482338  0.8854343061070331  0.585848276560583  1.0000
  C   C25       1.0  0.7198898490120665  0.21945383301082147  0.4591886699184731  1.0000
  C   C26       1.0  0.28011015113255816  0.7805461676546691  0.5408113301849422  1.0000
  C   C27       1.0  0.7736281748714203  0.34266317655581013  0.4480231091119973  1.0000
  C   C28       1.0  0.22637182546564016  0.6573368231113114  0.551976890990252  1.0000
  C   C29       1.0  0.9200344330484791  0.36280734381405577  0.38968764357137237  1.0000
  C   C30       1.0  0.07996556709614552  0.6371926568514349  0.610312356532043  1.0000
  C   C31       1.0  0.06077398087665384  0.015166796344031404  0.31678571773467884  1.0000
  C   C32       1.0  0.9392260184348478  0.9848332033166626  0.6832142823689292  1.0000
  C   C33       1.0  0.35895936174611365  0.14910416338145782  0.7975216577047991  1.0000
  C   C34       1.0  0.6410406375653881  0.8508958362792362  0.20247834239880902  1.0000
  C   C35       1.0  0.2901466655719958  0.2976167708922319  0.7724905570584657  1.0000
  C   C36       1.0  0.7098533347650646  0.7023832287748896  0.22750944304378348  1.0000
  C   C37       1.0  0.5120356773512191  0.13919502936902195  0.8110620713836731  1.0000
  C   C38       1.0  0.4879643229858413  0.8608049702980993  0.188937928718576  1.0000
  C   C39       1.0  0.26325569722907216  0.05554286975821233  0.9156592452259105  1.0000
  C   C40       1.0  0.7367443031079881  0.944457129908909  0.08434075487633885  1.0000
  O   O1        1.0  0.45468494769116424  0.11431583256862606  0.37523262805069824  1.0000
  O   O2        1.0  0.5453150527564548  0.8856841683618677  0.6247673710809681  1.0000
  O   O3        1.0  0.3308278706212166  0.2744305841984646  0.4820546632032975  1.0000
  O   O4        1.0  0.6691721297158439  0.7255694154686567  0.5179453368989518  1.0000
  O   O5        1.0  0.1596393088332019  0.2676314615412344  0.2823714640183076  1.0000
  O   O6        1.0  0.8403606915038585  0.7323685381258871  0.7176285360839416  1.0000
  O   O7        1.0  0.14155633851562838  0.6598045122826292  0.2979223858519258  1.0000
  O   O8        1.0  0.8584436618214321  0.34019548738449223  0.7020776142503234  1.0000
  O   O9        1.0  0.016183468554582647  0.9045911728167795  0.3255002371228312  1.0000
  O   O10       1.0  0.9838165317824777  0.09540882685034183  0.6744997629794182  1.0000
  O   O11       1.0  0.3664619913040401  0.10297665433818198  0.6835637828058843  1.0000
  O   O12       1.0  0.6335380090330202  0.8970233453289392  0.31643621729636506  1.0000
  Cl  Cl1       1.0  0.47262095337502164  0.48714882305497853  0.24498156600136722  1.0000
  Cl  Cl2       1.0  0.5273790469620387  0.512851176612143  0.7550184341008821  1.0000
  Cl  Cl3       1.0  0.4680606597799294  0.28374710334235154  0.11223192967402953  1.0000
  Cl  Cl4       1.0  0.5319393395315725  0.7162528963183423  0.8877680704295786  1.0000
