data_image0
_chemical_formula_structural       H100C86N8O24
_chemical_formula_sum              "H100 C86 N8 O24"
_cell_length_a       8.78002100991044
_cell_length_b       19.85441243006828
_cell_length_c       12.540979607210394
_cell_angle_alpha    90.0
_cell_angle_beta     107.35802985326615
_cell_angle_gamma    90.0

_space_group_name_H-M_alt    "P 1"
_space_group_IT_number       1

loop_
  _space_group_symop_operation_xyz
  'x, y, z'

loop_
  _atom_site_type_symbol
  _atom_site_label
  _atom_site_symmetry_multiplicity
  _atom_site_fract_x
  _atom_site_fract_y
  _atom_site_fract_z
  _atom_site_occupancy
  H   H1        1.0  0.3198358322220203  0.11850761377539835  0.8757358954426109  1.0000
  H   H2        1.0  0.6801641678523846  0.6185076135218457  0.12426410422624784  1.0000
  H   H3        1.0  0.24643573266413674  0.1851306626648613  0.9261814326788151  1.0000
  H   H4        1.0  0.753564267410268  0.6851306624113086  0.07381856699004352  1.0000
  H   H5        1.0  0.1558246155767624  0.11187656536418394  0.9223935792491839  1.0000
  H   H6        1.0  0.8441753844976424  0.6118765651106313  0.07760642041967476  1.0000
  H   H7        1.0  0.9998344447938293  0.1797293706156646  0.7685055011790831  1.0000
  H   H8        1.0  0.00016555527541851935  0.6797293708657783  0.23149449928607674  1.0000
  H   H9        1.0  0.21788918851058103  0.2548257838311965  0.7599188079173508  1.0000
  H   H10       1.0  0.7821108115586669  0.7548257835776437  0.24008119254780927  1.0000
  H   H11       1.0  0.3280851010512457  0.18691656039036142  0.730464588806451  1.0000
  H   H12       1.0  0.6719148990180022  0.6869165606404751  0.26953541165870887  1.0000
  H   H13       1.0  0.2731676276688122  0.13985185256829336  0.5441503064268698  1.0000
  H   H14       1.0  0.7268323724055926  0.6398518528184071  0.45584969324198893  1.0000
  H   H15       1.0  0.16103254411678702  0.1579244302012929  0.3405310965227045  1.0000
  H   H16       1.0  0.8389674559524609  0.6579244304514066  0.6594689039424556  1.0000
  H   H17       1.0  0.8762055411193457  0.32187605261597874  0.4018931828669699  1.0000
  H   H18       1.0  0.12379445894990229  0.8218760523624261  0.5981068175981902  1.0000
  H   H19       1.0  0.9912826502941642  0.30395877547403427  0.6063293424704923  1.0000
  H   H20       1.0  0.00871734978024062  0.803958775724148  0.39367065719836636  1.0000
  H   H21       1.0  0.9911635034979797  0.22132952186210264  0.2019518284733612  1.0000
  H   H22       1.0  0.008836496576425117  0.7213295221122163  0.7980481711954975  1.0000
  H   H23       1.0  0.8488789259739548  0.17660298849689715  0.6181227072485814  1.0000
  H   H24       1.0  0.15112107409529316  0.6766029887470109  0.38187729321657865  1.0000
  H   H25       1.0  0.6313991365611316  0.16563230675211127  0.4418043332120235  1.0000
  H   H26       1.0  0.3686008635081163  0.665632307002225  0.5581956672531364  1.0000
  H   H27       1.0  0.8234271783436627  0.15322108174769783  0.4260415925681128  1.0000
  H   H28       1.0  0.17657282172558522  0.6532210814941452  0.5739584078970472  1.0000
  H   H29       1.0  0.962897372681658  0.9745159524689828  0.60513312248462  1.0000
  H   H30       1.0  0.037102627387589904  0.47451595272253544  0.39486687798053993  1.0000
  H   H31       1.0  0.03396144976355576  0.02150733452848554  0.5107571997770054  1.0000
  H   H32       1.0  0.9660385503108491  0.5215073347785992  0.4892427998918534  1.0000
  H   H33       1.0  0.3870763637702361  0.9787831369197144  0.21738215165343786  1.0000
  H   H34       1.0  0.6129236363041687  0.47878313717326704  0.7826178480154209  1.0000
  H   H35       1.0  0.5604969304727675  0.880900415542534  0.3017436512474177  1.0000
  H   H36       1.0  0.4395030695964804  0.3809004152924203  0.6982563492177423  1.0000
  H   H37       1.0  0.8089138390580096  0.8994289225580767  0.4560942807784123  1.0000
  H   H38       1.0  0.19108616101639514  0.3994289223079631  0.5439057188904465  1.0000
  H   H39       1.0  0.7931679484343832  0.025193764950831123  0.7197037048648423  1.0000
  H   H40       1.0  0.2068320516348646  0.5251937646972784  0.28029629560031777  1.0000
  H   H41       1.0  0.4618785642173281  0.05618725882366309  0.7184988743817149  1.0000
  H   H42       1.0  0.5381214358570767  0.5561872590737768  0.2815011252871438  1.0000
  H   H43       1.0  0.6918054893593388  0.9446302471080229  0.8404645554939568  1.0000
  H   H44       1.0  0.3081945107099091  0.44463024685790914  0.15953544497120317  1.0000
  H   H45       1.0  0.4907480832478629  0.9551726512580954  0.8374112035934438  1.0000
  H   H46       1.0  0.5092519168265419  0.45517265100798154  0.162588796075415  1.0000
  H   H47       1.0  0.7302995625870603  0.8569126651279849  0.7255012160836383  1.0000
  H   H48       1.0  0.26970043748734457  0.3569126653815376  0.2744987835852205  1.0000
  H   H49       1.0  0.6344155985574895  0.784193854380734  0.5575771781818256  1.0000
  H   H50       1.0  0.36558440151691524  0.28419385413062037  0.44242282148703305  1.0000
  H   H51       1.0  0.3704645858283177  0.8062258234224134  0.41890567271849044  1.0000
  H   H52       1.0  0.6295354142460872  0.3062258231722998  0.5810943269503682  1.0000
  H   H53       1.0  0.202888995554916  0.9017157341250229  0.44904139604385623  1.0000
  H   H54       1.0  0.7971110045194888  0.4017157338749093  0.5509586036250026  1.0000
  H   H55       1.0  0.2983037935052522  0.9736695466607429  0.6170741916106204  1.0000
  H   H56       1.0  0.7016962065691525  0.4736695469142956  0.3829258080582382  1.0000
  H   H57       1.0  0.8557661496705271  0.045445671242001946  0.9158878322931618  1.0000
  H   H58       1.0  0.14423385040387776  0.5454456714921156  0.08411216737569685  1.0000
  H   H59       1.0  0.7679940112350954  0.15728775459860136  0.03564401959685961  1.0000
  H   H60       1.0  0.23200598883415255  0.657287754848715  0.9643559808683003  1.0000
  H   H61       1.0  0.8445933399859314  0.10024637077578605  0.2227059276073013  1.0000
  H   H62       1.0  0.15540666008847345  0.6002463710258997  0.7772940720615575  1.0000
  H   H63       1.0  0.6596202401621805  0.07448664598909584  0.1293109527416573  1.0000
  H   H64       1.0  0.3403797599070674  0.5744866457355431  0.8706890477235028  1.0000
  H   H65       1.0  0.6153086079629198  0.9622416481621511  0.05520934079720024  1.0000
  H   H66       1.0  0.38469139091820304  0.46224164791203737  0.9447906586189706  1.0000
  H   H67       1.0  0.7072250218351175  0.8431656695439377  0.05673557986111814  1.0000
  H   H68       1.0  0.2927749782341304  0.343165669293824  0.9432644206040418  1.0000
  H   H69       1.0  0.9867054755248845  0.813249825794239  0.15999367155021257  1.0000
  H   H70       1.0  0.013294524549520292  0.3132498260477916  0.8400063281186461  1.0000
  H   H71       1.0  0.17390747225406758  0.9021421683007923  0.2637138300156997  1.0000
  H   H72       1.0  0.8260925278203373  0.402142168554345  0.736286169653159  1.0000
  H   H73       1.0  0.08259550194768604  0.020297212089222933  0.261485134725703  1.0000
  H   H74       1.0  0.9174044981215619  0.5202972123393367  0.7385148657394569  1.0000
  H   H75       1.0  0.4645651409949322  0.09436542867229825  0.2908907703815915  1.0000
  H   H76       1.0  0.5354348590794726  0.5943654284187455  0.7091092292872672  1.0000
  H   H77       1.0  0.6240049196104298  0.24670358577733822  0.2789826843273813  1.0000
  H   H78       1.0  0.37599507927069314  0.7467035860274519  0.7210173150887895  1.0000
  H   H79       1.0  0.582822524409498  0.3124891588634468  0.17759968160035078  1.0000
  H   H80       1.0  0.41717747565974994  0.8124891591135605  0.8224003188648091  1.0000
  H   H81       1.0  0.6677174255887106  0.2362518027930313  0.15004456576474257  1.0000
  H   H82       1.0  0.33228257448569404  0.736251803043145  0.8499554339041162  1.0000
  H   H83       1.0  0.24238437862507864  0.18231462264368561  0.16364274214739324  1.0000
  H   H84       1.0  0.7576156214493261  0.682314622390133  0.8363572575214654  1.0000
  H   H85       1.0  0.5916059087921208  0.33108098983805556  0.9063305170216658  1.0000
  H   H86       1.0  0.408394091282284  0.8310809895845028  0.09366948264719285  1.0000
  H   H87       1.0  0.8017285926892851  0.34209099886098426  0.9295557328999698  1.0000
  H   H88       1.0  0.19827140619183786  0.8420909986074316  0.07044426651620092  1.0000
  H   H89       1.0  0.7340501613170356  0.27844979646073503  0.0025298239837087265  1.0000
  H   H90       1.0  0.26594983756408724  0.7784497962071824  0.9974701754324621  1.0000
  H   H91       1.0  0.5736785498155798  0.2165631073266273  0.6949584213074301  1.0000
  H   H92       1.0  0.42632145025366824  0.7165631075767409  0.3050415791577297  1.0000
  H   H93       1.0  0.27528200788903934  0.8839992370370863  0.8742316080872502  1.0000
  H   H94       1.0  0.7247179921802086  0.3839992367869725  0.1257683923779098  1.0000
  H   H95       1.0  0.17781695356775906  0.9254406855260845  0.7452107219599768  1.0000
  H   H96       1.0  0.8221830465066458  0.42544068527597073  0.2547892777088817  1.0000
  H   H97       1.0  0.07903984017075885  0.8596831253565986  0.7944344658792166  1.0000
  H   H98       1.0  0.920960159903646  0.359683125106485  0.20556553378964207  1.0000
  H   H99       1.0  0.13147671040642095  0.005697259004688209  0.01270655467155262  1.0000
  H   H100      1.0  0.8685232896679839  0.5056972587511355  0.9872934449973061  1.0000
  C   C1        1.0  0.1108848145229804  0.15740275724640282  0.7620152930396874  1.0000
  C   C2        1.0  0.8891151855462676  0.6574027574965164  0.2379847074254726  1.0000
  C   C3        1.0  0.08346786373469321  0.09149832695370036  0.6952011998852305  1.0000
  C   C4        1.0  0.9165321363397116  0.591498327203814  0.3047987997836282  1.0000
  C   C5        1.0  0.20700317336158625  0.20743515903612347  0.7129951181684367  1.0000
  C   C6        1.0  0.7929968267128186  0.7074351592862371  0.28700488150042186  1.0000
  C   C7        1.0  0.13852941829804202  0.21993681330941217  0.5898121035776391  1.0000
  C   C8        1.0  0.861470581771206  0.7199368135595259  0.4101878968875209  1.0000
  C   C9        1.0  0.1840524971085582  0.17911327532485283  0.5133368355833231  1.0000
  C   C10       1.0  0.8159475029658465  0.6791132755749665  0.4866631640855356  1.0000
  C   C11       1.0  0.12211415094822947  0.1893592083493891  0.3986895287708694  1.0000
  C   C12       1.0  0.8778858491261754  0.6893592085995027  0.6013104708979893  1.0000
  C   C13       1.0  0.011887959185978018  0.2415128595162113  0.3579879128495446  1.0000
  C   C14       1.0  0.9881120408832699  0.7415128592626585  0.6420120876156153  1.0000
  C   C15       1.0  0.9639849147838726  0.2822931073755641  0.43356142695847516  1.0000
  C   C16       1.0  0.03601508528537524  0.7822931076256778  0.5664385735066848  1.0000
  C   C17       1.0  0.027526810276522987  0.2713992271984585  0.5480038029918165  1.0000
  C   C18       1.0  0.9724731897978819  0.7713992269449058  0.4519961966770422  1.0000
  C   C19       1.0  0.8065340579073946  0.12619173943448617  0.5874852647594176  1.0000
  C   C20       1.0  0.1934659421618534  0.6261917396845998  0.4125147357057424  1.0000
  C   C21       1.0  0.6765294428402993  0.10938265172285087  0.642066081414648  1.0000
  C   C22       1.0  0.32347055722894863  0.6093826519729646  0.3579339190505121  1.0000
  C   C23       1.0  0.7330400014808051  0.13092247424372963  0.4601752779575564  1.0000
  C   C24       1.0  0.2669599985884429  0.6309224739901769  0.5398247225076036  1.0000
  C   C25       1.0  0.682078503461208  0.06234096497993133  0.4121806818866407  1.0000
  C   C26       1.0  0.3179214966131968  0.5623409652300451  0.587819317782218  1.0000
  C   C27       1.0  0.7795538735700306  0.007401890663731648  0.4588232272026607  1.0000
  C   C28       1.0  0.22044612649921727  0.5074018904101789  0.5411767732624992  1.0000
  C   C29       1.0  0.9355286728867431  0.018062297298554037  0.5484589018598615  1.0000
  C   C30       1.0  0.0644713271876617  0.5180622975486677  0.4515410978089972  1.0000
  C   C31       1.0  0.49695069643906464  0.9865694635382689  0.28538647660229277  1.0000
  C   C32       1.0  0.5030493036301833  0.48656946328815515  0.7146135238628673  1.0000
  C   C33       1.0  0.5941798757313174  0.9318729136491688  0.3319767126303363  1.0000
  C   C34       1.0  0.40582012434308745  0.4318729139027214  0.6680232870385225  1.0000
  C   C35       1.0  0.7342771931535678  0.9423464857446631  0.4188476166962316  1.0000
  C   C36       1.0  0.2657228057275551  0.4423464854945494  0.5811523827199392  1.0000
  C   C37       1.0  0.580178723159905  0.03800657323191331  0.7668749912227092  1.0000
  C   C38       1.0  0.4198212757212179  0.5380065729783606  0.23312500819346155  1.0000
  C   C39       1.0  0.6211728841772609  0.0753411537746955  0.8791339012676586  1.0000
  C   C40       1.0  0.378827115891987  0.5753411540248091  0.12086609919750137  1.0000
  C   C41       1.0  0.5744194240060789  0.9618617512487286  0.7879538467376541  1.0000
  C   C42       1.0  0.4255805760683259  0.4618617515022812  0.21204615293120463  1.0000
  C   C43       1.0  0.5205832110894746  0.920012880478739  0.6830332775916631  1.0000
  C   C44       1.0  0.4794167889849303  0.42001288022862543  0.3169667220771956  1.0000
  C   C45       1.0  0.6144058099157478  0.8667617004841688  0.6646952582288395  1.0000
  C   C46       1.0  0.38559419015865704  0.36676170073772146  0.33530474144001926  1.0000
  C   C47       1.0  0.5603924663132176  0.8256725897953769  0.570408097678334  1.0000
  C   C48       1.0  0.4396075337611873  0.3256725900489296  0.42959190199052466  1.0000
  C   C49       1.0  0.4120045098408525  0.8379136682385715  0.4928280495854434  1.0000
  C   C50       1.0  0.5879954902283953  0.3379136679884577  0.5071719508797166  1.0000
  C   C51       1.0  0.3187745549234219  0.8915851296204349  0.5095161144449651  1.0000
  C   C52       1.0  0.6812254451509829  0.3915851293703212  0.4904838852238936  1.0000
  C   C53       1.0  0.3724525956319551  0.9323245538088352  0.6037623820368782  1.0000
  C   C54       1.0  0.6275474044372928  0.4323245535587215  0.3962376184282818  1.0000
  C   C55       1.0  0.8288661240762634  0.10826479340907938  0.04713600918980124  1.0000
  C   C56       1.0  0.17113387599814142  0.6082647936591931  0.9528639904790576  1.0000
  C   C57       1.0  0.007086148837116374  0.12087033441320263  0.07261484473879304  1.0000
  C   C58       1.0  0.9929138512321315  0.6208703346633163  0.9273851557263669  1.0000
  C   C59       1.0  0.7894101151438363  0.07174852768962557  0.14572810438641715  1.0000
  C   C60       1.0  0.2105898849254115  0.5717485274360729  0.8542718960787429  1.0000
  C   C61       1.0  0.8428412617485403  0.9995353471123473  0.15677718427691456  1.0000
  C   C62       1.0  0.1571587383207075  0.49953534736589994  0.8432228161882453  1.0000
  C   C63       1.0  0.7382240099365287  0.9489024380025539  0.10048858953189686  1.0000
  C   C64       1.0  0.2617759901378761  0.4489024377524401  0.8995114101369619  1.0000
  C   C65       1.0  0.7887210508032707  0.8821671405130453  0.10187684094952751  1.0000
  C   C66       1.0  0.21127894927113403  0.38216714026293175  0.8981231587193312  1.0000
  C   C67       1.0  0.9458753610724153  0.8651392853100378  0.16043466777898638  1.0000
  C   C68       1.0  0.05412463899683254  0.3651392855635904  0.8395653326861736  1.0000
  C   C69       1.0  0.050833159305020366  0.9149486203121815  0.2182886288027966  1.0000
  C   C70       1.0  0.9491668407642275  0.4149486205657342  0.7817113716623634  1.0000
  C   C71       1.0  0.9994446100535699  0.9816053418173593  0.21671895855786058  1.0000
  C   C72       1.0  0.000555388822396177  0.48160534207091193  0.7832810416546114  1.0000
  C   C73       1.0  0.5402072135372394  0.05141585043604784  0.32619346121441467  1.0000
  C   C74       1.0  0.4597927865371655  0.5514158506861615  0.6738065384544442  1.0000
  C   C75       1.0  0.583184306808576  0.25783194934781534  0.18959643405278223  1.0000
  C   C76       1.0  0.41681569326067197  0.7578319490942627  0.8104035664123778  1.0000
  C   C77       1.0  0.41947332087288025  0.23097654066332038  0.13406828684921432  1.0000
  C   C78       1.0  0.5805266792015246  0.730976540913434  0.8659317128196444  1.0000
  C   C79       1.0  0.7062365304185046  0.30514323711866026  0.9224418736609498  1.0000
  C   C80       1.0  0.29376346965590017  0.8051432368651076  0.07755812600790901  1.0000
  C   C81       1.0  0.7063811991310833  0.2552033412142922  0.8325597820248154  1.0000
  C   C82       1.0  0.29361880094332143  0.7552033414644058  0.16744021764404327  1.0000
  C   C83       1.0  0.16095131633744997  0.902458047706546  0.8204512829494587  1.0000
  C   C84       1.0  0.8390486837369548  0.4024580479600987  0.1795487167194  1.0000
  C   C85       1.0  0.09173139796212498  0.9539154969561024  0.8789244838578395  1.0000
  C   C86       1.0  0.9082686021122798  0.4539154972096551  0.12107551581101902  1.0000
  N   N1        1.0  0.21229353401988799  0.14170008958509003  0.8773774739133807  1.0000
  N   N2        1.0  0.7877064660545168  0.6417000898352037  0.12262252575547793  1.0000
  N   N3        1.0  0.9419514849499708  0.07977429075671483  0.6159120878945603  1.0000
  N   N4        1.0  0.058048515124433965  0.5797742910068284  0.3840879117742983  1.0000
  N   N5        1.0  0.6922599733755639  0.05388700339374992  0.704877090492987  1.0000
  N   N6        1.0  0.307740026693684  0.5538870031401972  0.295122909972173  1.0000
  N   N7        1.0  0.773339473092398  0.07178736943337982  0.9427497175030354  1.0000
  N   N8        1.0  0.2266605269820068  0.5717873696834935  0.05725028216582333  1.0000
  O   O1        1.0  0.1955019081710349  0.05050812626826002  0.7127031285045712  1.0000
  O   O2        1.0  0.804498091898213  0.5505081265183737  0.2872968719605889  1.0000
  O   O3        1.0  0.9493719381503432  0.25449722462437147  0.24716604304367798  1.0000
  O   O4        1.0  0.050628061918904746  0.7544972243708188  0.752833957421482  1.0000
  O   O5        1.0  0.5598668864286168  0.14863054448949267  0.6261418305342025  1.0000
  O   O6        1.0  0.44013311364578805  0.6486305447396064  0.37385816913465625  1.0000
  O   O7        1.0  0.5181768913072462  0.10611836071306766  0.910828442155302  1.0000
  O   O8        1.0  0.4818231087620018  0.606118360459515  0.08917155830985793  1.0000
  O   O9        1.0  0.09116898689508963  0.08194196860422553  0.03355058945078448  1.0000
  O   O10       1.0  0.9088310131741582  0.5819419683506728  0.9664494110143755  1.0000
  O   O11       1.0  0.06499789875078861  0.17129275177388387  0.13389622951628297  1.0000
  O   O12       1.0  0.9350021013236163  0.6712927520239975  0.8661037701525757  1.0000
  O   O13       1.0  0.34720193252267406  0.24189991000320343  0.03422835988875682  1.0000
  O   O14       1.0  0.6527980675517308  0.7418999102533171  0.9657716397801018  1.0000
  O   O15       1.0  0.360767195293762  0.19482699644850168  0.20135893100926322  1.0000
  O   O16       1.0  0.6392328047806429  0.694826996194949  0.7986410686595955  1.0000
  O   O17       1.0  0.5719707773351743  0.25573338208238977  0.7469771955545634  1.0000
  O   O18       1.0  0.42802922273923044  0.7557333818288371  0.2530228041142952  1.0000
  O   O19       1.0  0.8198880557520758  0.21743695338281804  0.8369286319100395  1.0000
  O   O20       1.0  0.18011194432232908  0.7174369536329317  0.16307136775881925  1.0000
  O   O21       1.0  0.18042637688354457  0.9663481302999214  0.9834778318102224  1.0000
  O   O22       1.0  0.8195736231908602  0.46634813004980763  0.016522167858636312  1.0000
  O   O23       1.0  0.9632081527244084  0.9830933500928022  0.8352162263702875  1.0000
  O   O24       1.0  0.03679184734999637  0.4830933503463549  0.16478377329857113  1.0000
