data_image0
_chemical_formula_structural       H36C24N8Cl4
_chemical_formula_sum              "H36 C24 N8 Cl4"
_cell_length_a       8.797403763811237
_cell_length_b       17.676971161656837
_cell_length_c       4.413986010109764
_cell_angle_alpha    90.0
_cell_angle_beta     90.0
_cell_angle_gamma    90.0

_space_group_name_H-M_alt    "P 1"
_space_group_IT_number       1

loop_
  _space_group_symop_operation_xyz
  'x, y, z'

loop_
  _atom_site_type_symbol
  _atom_site_label
  _atom_site_symmetry_multiplicity
  _atom_site_fract_x
  _atom_site_fract_y
  _atom_site_fract_z
  _atom_site_occupancy
  H   H1        1.0  0.8447990724913903  0.9688783244241446  0.35854165064756177  1.0000
  H   H2        1.0  0.15520092707538666  0.03112167548212691  0.35854165064756177  1.0000
  H   H3        1.0  0.6552009268587752  0.46887832447100886  0.6414583515930969  1.0000
  H   H4        1.0  0.3447990727080018  0.5311216754352627  0.6414583515930969  1.0000
  H   H5        1.0  0.019413618447587322  0.9161411580015331  0.3522146754518915  1.0000
  H   H6        1.0  0.9805863822558887  0.08385884190473837  0.3522146754518915  1.0000
  H   H7        1.0  0.48058638247250013  0.41614115804839735  0.6477853267887672  1.0000
  H   H8        1.0  0.5194136182309758  0.5838588418578742  0.6477853267887672  1.0000
  H   H9        1.0  0.057981499280307984  0.8154568612561408  0.962919689882367  1.0000
  H   H10       1.0  0.9420185002864689  0.18454313865013072  0.962919689882367  1.0000
  H   H11       1.0  0.4420185005030805  0.31545686130300504  0.03708031009276577  1.0000
  H   H12       1.0  0.5579814990636964  0.6845431386032664  0.03708031009276577  1.0000
  H   H13       1.0  0.9240025907914458  0.7143863422367194  0.6579406195099794  1.0000
  H   H14       1.0  0.0759974087753312  0.2856136582352598  0.6579406195099794  1.0000
  H   H15       1.0  0.5759974085587197  0.21438634228358366  0.34205938046515333  1.0000
  H   H16       1.0  0.4240025910080573  0.7856136581883956  0.34205938046515333  1.0000
  H   H17       1.0  0.6517909026282852  0.7314130080182905  0.5359587308572306  1.0000
  H   H18       1.0  0.3482090969384918  0.2685869918879811  0.5359587308572306  1.0000
  H   H19       1.0  0.8482090967218803  0.23141300806515464  0.46404126911790217  1.0000
  H   H20       1.0  0.15179090284489669  0.7685869918411168  0.46404126911790217  1.0000
  H   H21       1.0  0.5141339526333748  0.8462165335454424  0.7446348385499902  1.0000
  H   H22       1.0  0.4858660469334022  0.1537834663608291  0.7446348385499902  1.0000
  H   H23       1.0  0.9858660467167906  0.34621653359230664  0.2553651614251424  1.0000
  H   H24       1.0  0.014133952849986295  0.6537834663139648  0.2553651614251424  1.0000
  H   H25       1.0  0.08534706944889864  0.974660507302946  0.8840658853612817  1.0000
  H   H26       1.0  0.9146529301178784  0.02533949260332541  0.8840658853612817  1.0000
  H   H27       1.0  0.41465293033448986  0.4746605073498103  0.11593411461385093  1.0000
  H   H28       1.0  0.5853470692322871  0.5253394925564612  0.11593411461385093  1.0000
  H   H29       1.0  0.5685052015656595  0.9641683529455128  0.11464766513553491  1.0000
  H   H30       1.0  0.4314947980011174  0.035831646960758676  0.11464766513553491  1.0000
  H   H31       1.0  0.9314947977845058  0.464168352992377  0.8853523348395979  1.0000
  H   H32       1.0  0.0685052017822711  0.5358316469138944  0.8853523348395979  1.0000
  H   H33       1.0  0.5718876028739188  0.03188405778601572  0.3845326256387007  1.0000
  H   H34       1.0  0.4281123978295571  0.9681159421202558  0.3845326256387007  1.0000
  H   H35       1.0  0.9281123976129455  0.5318840583048593  0.6154673743364321  1.0000
  H   H36       1.0  0.07188760309053034  0.46811594216712  0.6154673743364321  1.0000
  C   C1        1.0  0.9276931864343965  0.9400011007565943  0.212990138130642  1.0000
  C   C2        1.0  0.07230681313238049  0.05999889914967715  0.212990138130642  1.0000
  C   C3        1.0  0.572306812915769  0.4400011008034586  0.7870098618444907  1.0000
  C   C4        1.0  0.427693186651008  0.5599988991028129  0.7870098618444907  1.0000
  C   C5        1.0  0.8528173358215526  0.8804197041265801  0.021620233906819036  1.0000
  C   C6        1.0  0.1471826637452243  0.11958029577969143  0.021620233906819036  1.0000
  C   C7        1.0  0.6471826635286128  0.38041970417344434  0.9783797660683136  1.0000
  C   C8        1.0  0.3528173360381642  0.6195802957328271  0.9783797660683136  1.0000
  C   C9        1.0  0.936983236339369  0.819084228151386  0.9130352454152391  1.0000
  C   C10       1.0  0.06301676322740792  0.1809157717548854  0.9130352454152391  1.0000
  C   C11       1.0  0.5630167630107964  0.31908422819825033  0.08696475455989368  1.0000
  C   C12       1.0  0.4369832365559806  0.6809157717080211  0.08696475455989368  1.0000
  C   C13       1.0  0.8640818273307009  0.7642902540512883  0.7390894494291509  1.0000
  C   C14       1.0  0.1359181722360761  0.23570974585498317  0.7390894494291509  1.0000
  C   C15       1.0  0.6359181731561636  0.26429025409815254  0.2609105505459818  1.0000
  C   C16       1.0  0.3640818275473124  0.7357097458081189  0.2609105505459818  1.0000
  C   C17       1.0  0.7107122587370376  0.7735559426413832  0.6720605940312512  1.0000
  C   C18       1.0  0.28928774196643847  0.2264440572648883  0.6720605940312512  1.0000
  C   C19       1.0  0.789287741749827  0.2735559426882474  0.32793940594388155  1.0000
  C   C20       1.0  0.210712258953649  0.726444057218024  0.32793940594388155  1.0000
  C   C21       1.0  0.6350251483262339  0.8365537271495989  0.7879832360215179  1.0000
  C   C22       1.0  0.364974851240543  0.16344627275667264  0.7879832360215179  1.0000
  C   C23       1.0  0.8649748510239315  0.33655372719646304  0.21201676395361485  1.0000
  C   C24       1.0  0.13502514854284545  0.6634462727098084  0.21201676395361485  1.0000
  N   N1        1.0  0.0  0.0  0.020680765591672094  1.0000
  N   N2        1.0  0.4999999997833885  0.49999999995313577  0.9793192343834606  1.0000
  N   N3        1.0  0.7034744688493064  0.8888570811317265  0.9619074302173461  1.0000
  N   N4        1.0  0.2965255318541695  0.11114291877454499  0.9619074302173461  1.0000
  N   N5        1.0  0.796525531637558  0.38885708117859075  0.03809257202331251  1.0000
  N   N6        1.0  0.20347446906591796  0.6111429187276807  0.03809257202331251  1.0000
  N   N7        1.0  0.4999999997833885  0.0  0.24622502144563285  1.0000
  N   N8        1.0  0.0  0.49999999995313577  0.7537749785294998  1.0000
  Cl  Cl1       1.0  0.737528630513726  0.08269758470675603  0.6840746647325494  1.0000
  Cl  Cl2       1.0  0.2624713690530511  0.9173024151995154  0.6840746647325494  1.0000
  Cl  Cl3       1.0  0.7624713688364396  0.5826975846598917  0.3159253352425833  1.0000
  Cl  Cl4       1.0  0.23752863073033742  0.4173024152463797  0.3159253352425833  1.0000
