data_image0
_chemical_formula_structural       H40C44N24O8
_chemical_formula_sum              "H40 C44 N24 O8"
_cell_length_a       3.658525800009579
_cell_length_b       22.787126880858587
_cell_length_c       13.0302983699831
_cell_angle_alpha    90.0
_cell_angle_beta     92.73062329380939
_cell_angle_gamma    90.0

_space_group_name_H-M_alt    "P 1"
_space_group_IT_number       1

loop_
  _space_group_symop_operation_xyz
  'x, y, z'

loop_
  _atom_site_type_symbol
  _atom_site_label
  _atom_site_symmetry_multiplicity
  _atom_site_fract_x
  _atom_site_fract_y
  _atom_site_fract_z
  _atom_site_occupancy
  H   H1        1.0  0.5974855237972999  0.4372389956001594  0.6256590855173372  1.0000
  H   H2        1.0  0.40251447852968253  0.9372389955813202  0.8743409147618979  1.0000
  H   H3        1.0  0.40251447860382605  0.5627610043621621  0.37434091515111567  1.0000
  H   H4        1.0  0.5974855211457624  0.06276100438100138  0.12565908509964632  1.0000
  H   H5        1.0  0.41813244657352444  0.607203624763363  0.849671264436563  1.0000
  H   H6        1.0  0.5818675530170306  0.10720362478220233  0.6503287358030555  1.0000
  H   H7        1.0  0.5818675531019205  0.39279637519895844  0.15032873542498096  1.0000
  H   H8        1.0  0.41813244664766797  0.8927963751801192  0.34967126482578104  1.0000
  H   H9        1.0  0.32956061356975147  0.5315106403420199  0.5618115204166142  1.0000
  H   H10       1.0  0.6704393860208037  0.031510640360859106  0.9381884798230045  1.0000
  H   H11       1.0  0.6704393861056935  0.46848935962030164  0.4381884794449299  1.0000
  H   H12       1.0  0.32956061365464134  0.9684893596014623  0.061811520038539555  1.0000
  H   H13       1.0  0.6788054765463969  0.5152635433764523  0.9291246494484091  1.0000
  H   H14       1.0  0.3211945230549045  0.01526354339529157  0.570875350023917  1.0000
  H   H15       1.0  0.32119452312904795  0.48473645658586917  0.0708753504131349  1.0000
  H   H16       1.0  0.6788054766205405  0.98473645656703  0.42912464983762705  1.0000
  H   H17       1.0  0.9822348887682623  0.37991548672474895  0.6933268961907028  1.0000
  H   H18       1.0  0.01776511355872025  0.8799154867059098  0.8066731040885323  1.0000
  H   H19       1.0  0.017765113643610168  0.6200845132375725  0.3066731037104577  1.0000
  H   H20       1.0  0.9822348888424056  0.12008451325641178  0.1933268965799206  1.0000
  H   H21       1.0  0.04735435932158123  0.33387807817013115  0.8012758607880398  1.0000
  H   H22       1.0  0.9526456402689738  0.8338780781512919  0.6987241394515789  1.0000
  H   H23       1.0  0.9526456403538638  0.6661219217921903  0.19872413907350425  1.0000
  H   H24       1.0  0.047354359406471154  0.16612192181102958  0.30127586040996523  1.0000
  H   H25       1.0  0.9717059288393128  0.20486771651416302  0.7488644972919654  1.0000
  H   H26       1.0  0.028294070751242226  0.7048677164953238  0.7511355029476533  1.0000
  H   H27       1.0  0.028294070836132133  0.7951322834481585  0.25113550256957873  1.0000
  H   H28       1.0  0.9717059289242027  0.29513228346699777  0.24886449691389076  1.0000
  H   H29       1.0  0.4904135426712891  0.2139404171262645  0.19787944898330528  1.0000
  H   H30       1.0  0.5095864570890458  0.7139404171074252  0.30212055050016423  1.0000
  H   H31       1.0  0.5095864570041558  0.786059582836057  0.8021205508782389  1.0000
  H   H32       1.0  0.49041354258639924  0.28605958285489624  0.6978794493613798  1.0000
  H   H33       1.0  0.6226652094870976  0.34248289092362966  0.9797688724035072  1.0000
  H   H34       1.0  0.3773347901034575  0.8424828909047904  0.5202311278361115  1.0000
  H   H35       1.0  0.377334790177601  0.6575171090386918  0.020231128225329367  1.0000
  H   H36       1.0  0.6226652095719876  0.15751710905753108  0.4797688720254326  1.0000
  H   H37       1.0  0.8684097604429853  0.1271679863438236  0.8558242385000109  1.0000
  H   H38       1.0  0.13159023914756973  0.6271679863249843  0.6441757617396079  1.0000
  H   H39       1.0  0.13159023922171323  0.8728320136184978  0.1441757621288258  1.0000
  H   H40       1.0  0.8684097605278751  0.37283201363733715  0.35582423812193625  1.0000
  C   C1        1.0  0.568159944430634  0.4735083964913374  0.6789112389386605  1.0000
  C   C2        1.0  0.43184005517066737  0.9735083964724982  0.8210887605336658  1.0000
  C   C3        1.0  0.4318400552448109  0.5264916034709841  0.3210887609228837  1.0000
  C   C4        1.0  0.5681599445047776  0.026491603489823316  0.1789112393278783  1.0000
  C   C5        1.0  0.6632513955567078  0.46860908950175023  0.7838433107854746  1.0000
  C   C6        1.0  0.3367486067702746  0.968609089482911  0.7161566894937604  1.0000
  C   C7        1.0  0.3367486041187372  0.5313909104605712  0.2161566890760695  1.0000
  C   C8        1.0  0.6632513956308511  0.031390910479410485  0.28384331117469247  1.0000
  C   C9        1.0  0.46201155012835454  0.5681740022642193  0.8035004312685304  1.0000
  C   C10       1.0  0.5379884494622006  0.06817400228305864  0.6964995689710882  1.0000
  C   C11       1.0  0.5379884495470904  0.43182599769810215  0.19649956859301365  1.0000
  C   C12       1.0  0.46201155021324447  0.9318259976792629  0.30350043089045586  1.0000
  C   C13       1.0  0.41721843862697017  0.5259774043768525  0.6424481006590141  1.0000
  C   C14       1.0  0.5827815609743312  0.025977404395691687  0.8575518988133121  1.0000
  C   C15       1.0  0.5827815610484748  0.47402259558546905  0.35755189920253005  1.0000
  C   C16       1.0  0.4172184387011137  0.9740225955666298  0.14244810104823194  1.0000
  C   C17       1.0  0.800188323961784  0.4123688005570076  0.831798350581137  1.0000
  C   C18       1.0  0.19981167563951757  0.9123688005381684  0.6682016488911893  1.0000
  C   C19       1.0  0.19981167571366107  0.5876311994053139  0.16820164928040715  1.0000
  C   C20       1.0  0.8001883240359274  0.08763119942415316  0.33179835097035487  1.0000
  C   C21       1.0  0.6088831840347262  0.5171471384529363  0.8471056733664721  1.0000
  C   C22       1.0  0.39111681555582883  0.017147138471775507  0.6528943268731464  1.0000
  C   C23       1.0  0.3911168156407188  0.4828528615093852  0.15289432649507184  1.0000
  C   C24       1.0  0.6088831841088697  0.982852861490546  0.3471056737556901  1.0000
  C   C25       1.0  0.3468098400091477  0.25944631769115967  0.9588880125706551  1.0000
  C   C26       1.0  0.6531901595814072  0.7594463176723204  0.5411119876689635  1.0000
  C   C27       1.0  0.6531901596662972  0.7405536822711618  0.04111198729088891  1.0000
  C   C28       1.0  0.34680984009403765  0.2405536822900011  0.4588880121925806  1.0000
  C   C29       1.0  0.3027655682224249  0.2133951092397122  0.029841411204307212  1.0000
  C   C30       1.0  0.69723443153791  0.713395109220873  0.4701585882791623  1.0000
  C   C31       1.0  0.6972344314530201  0.7866048907226093  0.9701585886572369  1.0000
  C   C32       1.0  0.302765568137535  0.28660489074144857  0.5298414115823818  1.0000
  C   C33       1.0  0.11735861146687043  0.16106357107630734  0.9955980024452622  1.0000
  C   C34       1.0  0.882641390860112  0.661063571057468  0.5044019978339729  1.0000
  C   C35       1.0  0.8826413909450019  0.838936428886014  0.004401997455898277  1.0000
  C   C36       1.0  0.11735861155176035  0.3389364289048534  0.49559800206718757  1.0000
  C   C37       1.0  0.07243814757422841  0.21000954201119051  0.8287153579133701  1.0000
  C   C38       1.0  0.9275618520270731  0.7100095419923512  0.671284641558956  1.0000
  C   C39       1.0  0.9275618521012167  0.789990457951131  0.17128464194817394  1.0000
  C   C40       1.0  0.07243814764837189  0.2899904579699702  0.328715358302588  1.0000
  C   C41       1.0  0.46530588789209654  0.23477663278796052  0.1230580174110934  1.0000
  C   C42       1.0  0.5346941118574919  0.7347766327691212  0.3769419828396686  1.0000
  C   C43       1.0  0.534694111772602  0.765223367174361  0.8769419832177433  1.0000
  C   C44       1.0  0.46530588781795307  0.2652233671932002  0.6230580170218756  1.0000
  N   N1        1.0  0.9458644563180579  0.3725178880331122  0.7700621209007354  1.0000
  N   N2        1.0  0.05413554327249722  0.872517888014273  0.7299378793388833  1.0000
  N   N3        1.0  0.054135543357387135  0.6274821119292092  0.2299378789608087  1.0000
  N   N4        1.0  0.9458644564029477  0.12748211194804854  0.2700621205226608  1.0000
  N   N5        1.0  0.36450397085695013  0.5725150418571965  0.7030155055205471  1.0000
  N   N6        1.0  0.6354960287443513  0.07251504187603575  0.7969844939517792  1.0000
  N   N7        1.0  0.6354960288184949  0.427484958105125  0.296984494340997  1.0000
  N   N8        1.0  0.36450397093109355  0.9274849580862858  0.20301550590976497  1.0000
  N   N9        1.0  0.5231948239143612  0.3033920070813031  0.01025614173121001  1.0000
  N   N10       1.0  0.4768051758459737  0.8033920070624638  0.4897438577522595  1.0000
  N   N11       1.0  0.4768051757610838  0.6966079928810184  0.989743858130334  1.0000
  N   N12       1.0  0.5231948238294714  0.19660799289985764  0.5102561421092846  1.0000
  N   N13       1.0  0.2328435076803538  0.2594936000890518  0.8578927029542477  1.0000
  N   N14       1.0  0.7671564919102012  0.7594936000702125  0.6421072972853711  1.0000
  N   N15       1.0  0.7671564919950912  0.740506400312114  0.14210729690729654  1.0000
  N   N16       1.0  0.2328435077652437  0.24050639989210895  0.357892702576173  1.0000
  N   N17       1.0  0.015322034365235724  0.16351691898156523  0.8905874236408053  1.0000
  N   N18       1.0  0.9846779652360658  0.6635169189627259  0.609412575831521  1.0000
  N   N19       1.0  0.9846779653102092  0.8364830809807562  0.10941257622073888  1.0000
  N   N20       1.0  0.015322034439379226  0.33648308099959556  0.3905874240300231  1.0000
  N   N21       1.0  0.5974390078860323  0.28879684764155067  0.11050687052256385  1.0000
  N   N22       1.0  0.4025609918635562  0.7887968476227114  0.3894931297281981  1.0000
  N   N23       1.0  0.4025609917894127  0.7112031523207708  0.8894931293389803  1.0000
  N   N24       1.0  0.5974390078118887  0.21120315233961012  0.6105068701333459  1.0000
  O   O1        1.0  0.7679053733113207  0.404629467251757  0.9263550042397969  1.0000
  O   O2        1.0  0.23209462901566164  0.9046294672329178  0.5736449960394382  1.0000
  O   O3        1.0  0.23209462908980513  0.5953705327105645  0.07364499642865602  1.0000
  O   O4        1.0  0.7679053733962107  0.09537053272940377  0.42635500386172226  1.0000
  O   O5        1.0  0.04294801347059961  0.11680314916031724  0.04739366573014129  1.0000
  O   O6        1.0  0.9570519862789888  0.6168031491414779  0.45260633452062066  1.0000
  O   O7        1.0  0.9570519862048453  0.8831968508020043  0.9526063341314028  1.0000
  O   O8        1.0  0.04294801339645611  0.3831968508208435  0.5473936653409235  1.0000
