data_image0
_chemical_formula_structural       H42C58O4F12Br2
_chemical_formula_sum              "H42 C58 O4 F12 Br2"
_cell_length_a       7.405148561165496
_cell_length_b       5.9735347213741345
_cell_length_c       27.90617543869721
_cell_angle_alpha    90.0
_cell_angle_beta     96.99418435649778
_cell_angle_gamma    90.0

_space_group_name_H-M_alt    "P 1"
_space_group_IT_number       1

loop_
  _space_group_symop_operation_xyz
  'x, y, z'

loop_
  _atom_site_type_symbol
  _atom_site_label
  _atom_site_symmetry_multiplicity
  _atom_site_fract_x
  _atom_site_fract_y
  _atom_site_fract_z
  _atom_site_occupancy
  H   H1        1.0  0.6719996819219931  0.4708206013998073  0.7602938505203902  1.0000
  H   H2        1.0  0.328000318086835  0.9708206012847886  0.23970614929712875  1.0000
  H   H3        1.0  0.6324536271060923  0.3997543835236441  0.8453423888893311  1.0000
  H   H4        1.0  0.36754637306778637  0.8997543834086255  0.15465761128921807  1.0000
  H   H5        1.0  0.6747658212316378  0.518183518532884  0.9311741425313703  1.0000
  H   H6        1.0  0.3252341789422408  0.01818351864790256  0.06882585764717884  1.0000
  H   H7        1.0  0.7739829728027616  0.8030689807217652  0.9931499313628411  1.0000
  H   H8        1.0  0.2260170272060664  0.3030689808367838  0.0068500684546778535  1.0000
  H   H9        1.0  0.9055878210892017  0.16523705913488723  0.9692980727047262  1.0000
  H   H10       1.0  0.09441217908467708  0.6652370590198687  0.030701927473822995  1.0000
  H   H11       1.0  0.9348594634725019  0.24285044745940487  0.8837142818690982  1.0000
  H   H12       1.0  0.06514053653632616  0.7428504473443864  0.11628571794842087  1.0000
  H   H13       1.0  0.9001384552433087  0.11924135929959848  0.7979421857713626  1.0000
  H   H14       1.0  0.09986154493056994  0.6192413591845799  0.20205781440718656  1.0000
  H   H15       1.0  0.8633602071115489  0.6718311045619593  0.7055822760342395  1.0000
  H   H16       1.0  0.13663979306232985  0.17183110467697774  0.2944177241443097  1.0000
  H   H17       1.0  0.9526351480120917  0.032366375859203884  0.6706598428564305  1.0000
  H   H18       1.0  0.04736485216178697  0.5323663774182361  0.32934015732211863  1.0000
  H   H19       1.0  0.8753060803922635  0.1878731944060479  0.7210109202338169  1.0000
  H   H20       1.0  0.1246939197816151  0.6878731942910293  0.2789890799447323  1.0000
  H   H21       1.0  0.6367582921057877  0.8661620466499568  0.6513833364963674  1.0000
  H   H22       1.0  0.3632417079030403  0.36616204676497544  0.34861666332115165  1.0000
  H   H23       1.0  0.551382369240319  0.11078472979023161  0.7434339992363526  1.0000
  H   H24       1.0  0.4486176307685091  0.6107847296752131  0.2565660005811664  1.0000
  H   H25       1.0  0.39562716866325776  0.9518830868521319  0.7046503385141597  1.0000
  H   H26       1.0  0.6043728313455703  0.45188308696715035  0.2953496613033594  1.0000
  H   H27       1.0  0.5716070538412167  0.38763853698122186  0.675310835956011  1.0000
  H   H28       1.0  0.428392946332662  0.8876385368662033  0.32468916422253813  1.0000
  H   H29       1.0  0.3508993451337729  0.4532661625472483  0.7359491529155592  1.0000
  H   H30       1.0  0.6491006550401058  0.9532661624322298  0.26405084726299005  1.0000
  H   H31       1.0  0.1849170308982043  0.29273296993538617  0.6997759716012255  1.0000
  H   H32       1.0  0.8150829691106237  0.7927329698203677  0.30022402821629335  1.0000
  H   H33       1.0  0.2634214488631514  0.5518074714131305  0.6776487754894682  1.0000
  H   H34       1.0  0.7365785513107272  0.05180747152814901  0.32235122468908095  1.0000
  H   H35       1.0  0.39333903585582286  0.5613442754424365  0.5085008896543408  1.0000
  H   H36       1.0  0.6066609641530052  0.06134427555745499  0.4914991101631782  1.0000
  H   H37       1.0  0.27383138989195355  0.4199733235036592  0.4265485189121034  1.0000
  H   H38       1.0  0.726168610281925  0.9199733233886406  0.5734514812664459  1.0000
  H   H39       1.0  0.10294495187125645  0.8098183045108677  0.4907005317682527  1.0000
  H   H40       1.0  0.8970550483026223  0.30981830295183554  0.5092994684102965  1.0000
  H   H41       1.0  0.2310220505411148  0.9462180306369374  0.5718413873543716  1.0000
  H   H42       1.0  0.7689779496327639  0.4462180307519559  0.4281586128241775  1.0000
  C   C1        1.0  0.7132687550552205  0.5969695894191913  0.787699759047967  1.0000
  C   C2        1.0  0.2867312449536074  0.09696958953420978  0.2123002407695519  1.0000
  C   C3        1.0  0.6906688173031698  0.5569474632993645  0.8350363510090067  1.0000
  C   C4        1.0  0.3093311828707089  0.05694746341438299  0.1649636491695424  1.0000
  C   C5        1.0  0.7453682551572773  0.7174457971534369  0.871372629258788  1.0000
  C   C6        1.0  0.25463174485155077  0.21744579726845553  0.12862737055873105  1.0000
  C   C7        1.0  0.7303774094973798  0.6774678358392581  0.920807970448083  1.0000
  C   C8        1.0  0.2696225891609605  0.17746783595427656  0.0791920293692702  1.0000
  C   C9        1.0  0.7870143813391361  0.8358677086338934  0.9553866952269624  1.0000
  C   C10       1.0  0.212985618669692  0.3358677087489118  0.04461330459055667  1.0000
  C   C11       1.0  0.8607902033236999  0.04120859951130808  0.9417290614745794  1.0000
  C   C12       1.0  0.13920979668512806  0.5412085993962895  0.05827093834293964  1.0000
  C   C13       1.0  0.8769434994588865  0.08480608109422104  0.8938276482923102  1.0000
  C   C14       1.0  0.1230565007149921  0.5848060809792025  0.10617235188623886  1.0000
  C   C15       1.0  0.8203318168356994  0.9253296160181141  0.8573135036588286  1.0000
  C   C16       1.0  0.17966818317312863  0.42532961613313264  0.1426864961586904  1.0000
  C   C17       1.0  0.840308351921618  0.9615492029279947  0.8078536650607937  1.0000
  C   C18       1.0  0.1596916480872101  0.4615492030430133  0.19214633475672535  1.0000
  C   C19       1.0  0.7907372742708295  0.8002491578219788  0.7730854166493222  1.0000
  C   C20       1.0  0.20926272590304915  0.30024915793699736  0.22691458352922703  1.0000
  C   C21       1.0  0.8117994258879302  0.8235146541290013  0.7210732288672224  1.0000
  C   C22       1.0  0.18820057428594847  0.32351465424401976  0.27892677131132687  1.0000
  C   C23       1.0  0.8598830063598298  0.03949928827830144  0.6980634528994056  1.0000
  C   C24       1.0  0.14011699364899813  0.5394992881632829  0.3019365469181134  1.0000
  C   C25       1.0  0.6702477249245472  0.947266170522623  0.6863652813583827  1.0000
  C   C26       1.0  0.32975227524933143  0.4472661706376415  0.31363471882016647  1.0000
  C   C27       1.0  0.5136004025495663  0.06461549953311557  0.7053977972629777  1.0000
  C   C28       1.0  0.48639959762431223  0.5646154994180971  0.29460220291557143  1.0000
  C   C29       1.0  0.45425730705885775  0.2767681376462617  0.6777656551098225  1.0000
  C   C30       1.0  0.5457426929499704  0.7767681375312432  0.3222343447076966  1.0000
  C   C31       1.0  0.3038683834027818  0.401664741549884  0.6988573607020457  1.0000
  C   C32       1.0  0.6961316167710969  0.9016647414348655  0.30114263947650355  1.0000
  C   C33       1.0  0.3879665936930845  0.359428721878442  0.5931530445966048  1.0000
  C   C34       1.0  0.6120334064807942  0.8594287217634234  0.40684695558194445  1.0000
  C   C35       1.0  0.31754235116110807  0.26498260976641286  0.54525225517807  1.0000
  C   C36       1.0  0.68245764884772  0.7649826096513943  0.45474774463944906  1.0000
  C   C37       1.0  0.3296501091905121  0.3969123610374845  0.5041682952090286  1.0000
  C   C38       1.0  0.6703498909833667  0.8969123609224661  0.4958317049695206  1.0000
  C   C39       1.0  0.26226093177902154  0.3189598301291377  0.45847222079952615  1.0000
  C   C40       1.0  0.7377390683948571  0.8189598300141192  0.5415277793790231  1.0000
  C   C41       1.0  0.18059405886853203  0.10796160566245881  0.45447949119164893  1.0000
  C   C42       1.0  0.8194059411402962  0.6079616055474403  0.5455205086258701  1.0000
  C   C43       1.0  0.16753919709299017  0.9733937729020894  0.4948118209132677  1.0000
  C   C44       1.0  0.8324608029158378  0.47339377301710794  0.5051881789042513  1.0000
  C   C45       1.0  0.23788801405237317  0.05171738416361517  0.5403014836376157  1.0000
  C   C46       1.0  0.762111985956455  0.5517173840485966  0.45969851617990337  1.0000
  C   C47       1.0  0.22370232666043494  0.6721113908711706  0.9062122763680344  1.0000
  C   C48       1.0  0.7762976733483932  0.17211139098618913  0.09378772344948474  1.0000
  C   C49       1.0  0.3041283806107387  0.8667877197521197  0.9263939388371368  1.0000
  C   C50       1.0  0.6958716180476016  0.3667877198671383  0.07360606098021644  1.0000
  C   C51       1.0  0.3640314777195072  0.03056182285954872  0.8964764892881025  1.0000
  C   C52       1.0  0.6359685209388332  0.5305618227445302  0.10352351052925077  1.0000
  C   C53       1.0  0.3442710850579409  0.9989466201055769  0.8466281705968489  1.0000
  C   C54       1.0  0.6557289149508871  0.4989466202205953  0.15337182922067008  1.0000
  C   C55       1.0  0.2651018154755292  0.8038422548744159  0.8264778854048316  1.0000
  C   C56       1.0  0.7348981845332989  0.30384225498943446  0.17352211441268742  1.0000
  C   C57       1.0  0.20522053444722835  0.6402691117396208  0.8563742564567209  1.0000
  C   C58       1.0  0.7947794657266503  0.14026911185463928  0.14362574372182832  1.0000
  O   O1        1.0  0.3895101390349412  0.20439233668991508  0.6285708527035958  1.0000
  O   O2        1.0  0.610489860973887  0.7043923365748966  0.37142914711392333  1.0000
  O   O3        1.0  0.43848045105045097  0.5538709498350262  0.5997476885519561  1.0000
  O   O4        1.0  0.5615195491234277  0.05387094995004466  0.40025231162659314  1.0000
  F   F1        1.0  0.16115253252377487  0.515576067379337  0.9347626344581396  1.0000
  F   F2        1.0  0.8388474676501038  0.01557606749435557  0.06523736572040957  1.0000
  F   F3        1.0  0.3234811585939539  0.8969739827288452  0.9745685994104785  1.0000
  F   F4        1.0  0.6765188415799248  0.3969739811698131  0.025431400768070694  1.0000
  F   F5        1.0  0.44179241426340526  0.21915291884314259  0.9157825575305294  1.0000
  F   F6        1.0  0.5582075857454226  0.719152918728124  0.08421744228698956  1.0000
  F   F7        1.0  0.40207919140176246  0.1567959832306024  0.8175627065551089  1.0000
  F   F8        1.0  0.5979208087721162  0.656795983115584  0.1824372936234404  1.0000
  F   F9        1.0  0.24465891104362408  0.7754407927731004  0.778335222002249  1.0000
  F   F10       1.0  0.7553410889652041  0.2754407928881189  0.22166477781527008  1.0000
  F   F11       1.0  0.1258954097465248  0.45284515888404014  0.83694482109159  1.0000
  F   F12       1.0  0.8741045904273539  0.9528451604430722  0.16305517908695927  1.0000
  Br  Br1       1.0  0.08287617434932894  0.9986810939014141  0.39257219811411587  1.0000
  Br  Br2       1.0  0.9171238256594991  0.49868109401643274  0.6074278017034032  1.0000
