data_image0
_chemical_formula_structural       H44C48N12O16
_chemical_formula_sum              "H44 C48 N12 O16"
_cell_length_a       13.028489487946857
_cell_length_b       23.674092586281166
_cell_length_c       3.654463423339718
_cell_angle_alpha    90.0
_cell_angle_beta     90.0
_cell_angle_gamma    90.0

_space_group_name_H-M_alt    "P 1"
_space_group_IT_number       1

loop_
  _space_group_symop_operation_xyz
  'x, y, z'

loop_
  _atom_site_type_symbol
  _atom_site_label
  _atom_site_symmetry_multiplicity
  _atom_site_fract_x
  _atom_site_fract_y
  _atom_site_fract_z
  _atom_site_occupancy
  H   H1        1.0  0.8140649635410184  0.4980419104566886  0.8448830928996763  1.0000
  H   H2        1.0  0.685935037079139  0.5019580897003959  0.34488309335661316  1.0000
  H   H3        1.0  0.18593503661657032  0.9980419103240297  0.15511690618645002  1.0000
  H   H4        1.0  0.3140649630784498  0.0019580898330550044  0.655116908465893  1.0000
  H   H5        1.0  0.18593503661657032  0.5019580897003959  0.15511690618645002  1.0000
  H   H6        1.0  0.3140649630784498  0.4980419104566886  0.655116908465893  1.0000
  H   H7        1.0  0.8140649635410184  0.0019580898330550044  0.8448830928996763  1.0000
  H   H8        1.0  0.685935037079139  0.9980419103240297  0.34488309335661316  1.0000
  H   H9        1.0  0.08461690597516311  0.414470095706479  0.25127658526701224  1.0000
  H   H10       1.0  0.41538309371985693  0.5855299040282029  0.7512765848100754  1.0000
  H   H11       1.0  0.9153830941824257  0.9144700959962228  0.7487234165554939  1.0000
  H   H12       1.0  0.5846169064377319  0.08552990416086194  0.24872341701243075  1.0000
  H   H13       1.0  0.9153830941824257  0.5855299040282029  0.7487234165554939  1.0000
  H   H14       1.0  0.5846169064377319  0.414470095706479  0.24872341701243075  1.0000
  H   H15       1.0  0.08461690597516311  0.08552990416086194  0.25127658526701224  1.0000
  H   H16       1.0  0.41538309371985693  0.9144700959962228  0.7512765848100754  1.0000
  H   H17       1.0  0.7544097333073806  0.3575134649471072  0.0332261910803403  1.0000
  H   H18       1.0  0.7455902665452281  0.6424865352099774  0.5332261906234035  1.0000
  H   H19       1.0  0.24559026685020813  0.8575134648144481  0.966773808005786  1.0000
  H   H20       1.0  0.2544097328448119  0.14248653492023383  0.4667738084627229  1.0000
  H   H21       1.0  0.24559026685020813  0.6424865352099774  0.966773808005786  1.0000
  H   H22       1.0  0.2544097328448119  0.3575134649471072  0.4667738084627229  1.0000
  H   H23       1.0  0.7544097333073806  0.14248653492023383  0.0332261910803403  1.0000
  H   H24       1.0  0.7455902665452281  0.8575134648144481  0.5332261906234035  1.0000
  H   H25       1.0  0.5735173073526817  0.34082874773733773  0.7665783551446369  1.0000
  H   H26       1.0  0.9264826924999271  0.659171252419747  0.2665783556015738  1.0000
  H   H27       1.0  0.4264826920373584  0.8408287476046786  0.23342164667786922  1.0000
  H   H28       1.0  0.07351730765766167  0.15917125255240594  0.7334216462209323  1.0000
  H   H29       1.0  0.4264826920373584  0.659171252419747  0.23342164667786922  1.0000
  H   H30       1.0  0.07351730765766167  0.34082874773733773  0.7334216462209323  1.0000
  H   H31       1.0  0.5735173073526817  0.15917125255240594  0.7665783551446369  1.0000
  H   H32       1.0  0.9264826924999271  0.8408287476046786  0.2665783556015738  1.0000
  H   H33       1.0  0.48143806124285105  0.25000000014487184  0.6169295923448125  1.0000
  H   H34       1.0  0.018561938452168972  0.7500000000122128  0.11692959006536947  1.0000
  H   H35       1.0  0.518561938147189  0.7500000000122128  0.38307040947769366  1.0000
  H   H36       1.0  0.9814380617054197  0.25000000014487184  0.8830704090207568  1.0000
  H   H37       1.0  0.866981215316622  0.2879456952850763  0.30830582481800994  1.0000
  H   H38       1.0  0.6330187845359868  0.7120543044496057  0.808305824361073  1.0000
  H   H39       1.0  0.13301878484096674  0.78794569557482  0.6916941742681164  1.0000
  H   H40       1.0  0.366981215621602  0.21205430458226468  0.1916941747250532  1.0000
  H   H41       1.0  0.13301878484096674  0.7120543044496057  0.6916941742681164  1.0000
  H   H42       1.0  0.366981215621602  0.2879456952850763  0.1916941747250532  1.0000
  H   H43       1.0  0.866981215316622  0.21205430458226468  0.30830582481800994  1.0000
  H   H44       1.0  0.6330187845359868  0.78794569557482  0.808305824361073  1.0000
  C   C1        1.0  0.8854861517655513  0.3971247035439951  0.11633178410949442  1.0000
  C   C2        1.0  0.6145138488546061  0.6028752966130896  0.6163317836525576  1.0000
  C   C3        1.0  0.11451384839203745  0.8971247034113361  0.8836682177130116  1.0000
  C   C4        1.0  0.3854861513029826  0.10287529674574852  0.3836682154335687  1.0000
  C   C5        1.0  0.11451384839203745  0.6028752966130896  0.8836682177130116  1.0000
  C   C6        1.0  0.3854861513029826  0.3971247035439951  0.3836682154335687  1.0000
  C   C7        1.0  0.8854861517655513  0.10287529674574852  0.11633178410949442  1.0000
  C   C8        1.0  0.6145138488546061  0.8971247034113361  0.6163317836525576  1.0000
  C   C9        1.0  0.9431841888784064  0.45061698399295524  0.0547601950868936  1.0000
  C   C10       1.0  0.5568158109742024  0.5493830161641293  0.5547601946299567  1.0000
  C   C11       1.0  0.05681581127918237  0.9506169838602962  0.9452398067356125  1.0000
  C   C12       1.0  0.44318418918338637  0.049383016296788394  0.4452398071925494  1.0000
  C   C13       1.0  0.05681581127918237  0.5493830161641293  0.9452398067356125  1.0000
  C   C14       1.0  0.44318418918338637  0.45061698399295524  0.4452398071925494  1.0000
  C   C15       1.0  0.9431841888784064  0.049383016296788394  0.0547601950868936  1.0000
  C   C16       1.0  0.5568158109742024  0.9506169838602962  0.5547601946299567  1.0000
  C   C17       1.0  0.8953292644394065  0.49895988608429914  0.9130412001635797  1.0000
  C   C18       1.0  0.604670736180751  0.5010401136503828  0.4130412006205165  1.0000
  C   C19       1.0  0.10467073571818218  0.9989598859516401  0.08695879892254664  1.0000
  C   C20       1.0  0.3953292639768378  0.0010401137830418534  0.5869587984656097  1.0000
  C   C21       1.0  0.10467073571818218  0.5010401136503828  0.08695879892254664  1.0000
  C   C22       1.0  0.3953292639768378  0.49895988608429914  0.5869587984656097  1.0000
  C   C23       1.0  0.8953292644394065  0.0010401137830418534  0.9130412001635797  1.0000
  C   C24       1.0  0.604670736180751  0.9989598859516401  0.4130412006205165  1.0000
  C   C25       1.0  0.04803199638599214  0.452048232091547  0.14062478686141913  1.0000
  C   C26       1.0  0.45196800330902787  0.5479517680655376  0.6406247891408622  1.0000
  C   C27       1.0  0.9519680030040479  0.952048231958888  0.8593752122247071  1.0000
  C   C28       1.0  0.5480319968485609  0.047951768198196645  0.359375212681644  1.0000
  C   C29       1.0  0.9519680030040479  0.5479517680655376  0.8593752122247071  1.0000
  C   C30       1.0  0.5480319968485609  0.452048232091547  0.359375212681644  1.0000
  C   C31       1.0  0.04803199638599214  0.047951768198196645  0.14062478686141913  1.0000
  C   C32       1.0  0.45196800330902787  0.952048231958888  0.6406247891408622  1.0000
  C   C33       1.0  0.7404919924850273  0.25000000014487184  0.09579034715856788  1.0000
  C   C34       1.0  0.7595080073675815  0.7500000000122128  0.5957903467016311  1.0000
  C   C35       1.0  0.2595080076725615  0.7500000000122128  0.9042096546639383  1.0000
  C   C36       1.0  0.24049199279000721  0.25000000014487184  0.4042096551208751  1.0000
  C   C37       1.0  0.6062783953049631  0.2999019909263304  0.8375594295051906  1.0000
  C   C38       1.0  0.8937216045476458  0.7000980088083515  0.3375594299621274  1.0000
  C   C39       1.0  0.393721604085077  0.7999019907936714  0.16244057231731554  1.0000
  C   C40       1.0  0.10627839560994302  0.20009800894101057  0.6624405718603787  1.0000
  C   C41       1.0  0.393721604085077  0.7000980088083515  0.16244057231731554  1.0000
  C   C42       1.0  0.10627839560994302  0.2999019909263304  0.6624405718603787  1.0000
  C   C43       1.0  0.6062783953049631  0.20009800894101057  0.8375594295051906  1.0000
  C   C44       1.0  0.8937216045476458  0.7999019907936714  0.3375594299621274  1.0000
  C   C45       1.0  0.5553327050456237  0.25000000014487184  0.7528155603992359  1.0000
  C   C46       1.0  0.9446672948069851  0.7500000000122128  0.2528155608561728  1.0000
  C   C47       1.0  0.4446672951119651  0.7500000000122128  0.24718443868689036  1.0000
  C   C48       1.0  0.05533270535060362  0.25000000014487184  0.7471844382299535  1.0000
  N   N1        1.0  0.6972841117463744  0.30055218649111926  0.006519383898560708  1.0000
  N   N2        1.0  0.8027158881062344  0.6994478132435626  0.5065193834416238  1.0000
  N   N3        1.0  0.3027158884112144  0.8005521867808629  0.9934806179239454  1.0000
  N   N4        1.0  0.19728411205135435  0.19944781337622175  0.4934806183808823  1.0000
  N   N5        1.0  0.3027158884112144  0.6994478132435626  0.9934806179239454  1.0000
  N   N6        1.0  0.19728411205135435  0.30055218649111926  0.4934806183808823  1.0000
  N   N7        1.0  0.6972841117463744  0.19944781337622175  0.006519383898560708  1.0000
  N   N8        1.0  0.8027158881062344  0.8005521867808629  0.5065193834416238  1.0000
  N   N9        1.0  0.8287702883737432  0.25000000014487184  0.28144274024777644  1.0000
  N   N10       1.0  0.6712297114788655  0.7500000000122128  0.7814427397908396  1.0000
  N   N11       1.0  0.1712297117838454  0.7500000000122128  0.71855725883835  1.0000
  N   N12       1.0  0.32877028867872327  0.25000000014487184  0.21855725929528674  1.0000
  O   O1        1.0  0.7884407336324898  0.3983146300384249  0.011472417464144534  1.0000
  O   O2        1.0  0.7115592662201191  0.6016853701186596  0.5114724170072077  1.0000
  O   O3        1.0  0.21155926652509902  0.8983146299057658  0.9885275816219817  1.0000
  O   O4        1.0  0.2884407339374697  0.10168537025131873  0.48852758207891867  1.0000
  O   O5        1.0  0.21155926652509902  0.6016853701186596  0.9885275816219817  1.0000
  O   O6        1.0  0.2884407339374697  0.3983146300384249  0.48852758207891867  1.0000
  O   O7        1.0  0.7884407336324898  0.10168537025131873  0.011472417464144534  1.0000
  O   O8        1.0  0.7115592662201191  0.8983146299057658  0.5114724170072077  1.0000
  O   O9        1.0  0.9278893528819272  0.3551872473825145  0.25521051162900105  1.0000
  O   O10       1.0  0.5721106469706816  0.6448127523521674  0.7552105111720642  1.0000
  O   O11       1.0  0.07211064727566154  0.8551872476722582  0.7447894874571253  1.0000
  O   O12       1.0  0.42788935318690713  0.1448127524848265  0.24478948791406213  1.0000
  O   O13       1.0  0.07211064727566154  0.6448127523521674  0.7447894874571253  1.0000
  O   O14       1.0  0.42788935318690713  0.3551872473825145  0.24478948791406213  1.0000
  O   O15       1.0  0.9278893528819272  0.1448127524848265  0.25521051162900105  1.0000
  O   O16       1.0  0.5721106469706816  0.8551872476722582  0.7552105111720642  1.0000
