data_image0
_chemical_formula_structural       H48C72N16F32I8
_chemical_formula_sum              "H48 C72 N16 F32 I8"
_cell_length_a       20.387153167507112
_cell_length_b       6.235074851743353
_cell_length_c       17.562258205132153
_cell_angle_alpha    90.0
_cell_angle_beta     109.47136616297935
_cell_angle_gamma    90.0

_space_group_name_H-M_alt    "P 1"
_space_group_IT_number       1

loop_
  _space_group_symop_operation_xyz
  'x, y, z'

loop_
  _atom_site_type_symbol
  _atom_site_label
  _atom_site_symmetry_multiplicity
  _atom_site_fract_x
  _atom_site_fract_y
  _atom_site_fract_z
  _atom_site_occupancy
  H   H1        1.0  0.7089840565456493  0.6170930215736206  0.45988840035420253  1.0000
  H   H2        1.0  0.29101594321666235  0.6170930215736206  0.040111599578313846  1.0000
  H   H3        1.0  0.2910159433289721  0.3829069781467753  0.5401115993761375  1.0000
  H   H4        1.0  0.7089840568297823  0.3829069781467753  0.9598884007559664  1.0000
  H   H5        1.0  0.7829456766626612  0.5907453041995354  0.5485103828727662  1.0000
  H   H6        1.0  0.21705432349609313  0.5907453041995354  0.9514896172593377  1.0000
  H   H7        1.0  0.21705432338378336  0.40925469552086047  0.45148961746151406  1.0000
  H   H8        1.0  0.7829456768695953  0.40925469552086047  0.04851038247296866  1.0000
  H   H9        1.0  0.719155873061727  0.3684086710455022  0.6047376866293809  1.0000
  H   H10       1.0  0.2808441266059604  0.3684086710455022  0.8952623135007567  1.0000
  H   H11       1.0  0.28084412698471767  0.6315913286748938  0.3952623137048995  1.0000
  H   H12       1.0  0.7191558732686609  0.6315913286748938  0.10473768622958327  1.0000
  H   H13       1.0  0.6457992292758284  0.385283259162208  0.5151258031956064  1.0000
  H   H14       1.0  0.35420077088292595  0.385283259162208  0.9848741969364977  1.0000
  H   H15       1.0  0.35420077059879296  0.6147167405581878  0.48487419653473374  1.0000
  H   H16       1.0  0.6457992291635187  0.6147167405581878  0.015125803397782687  1.0000
  H   H17       1.0  0.6314272592961612  0.12349207159633532  0.4091108611577589  1.0000
  H   H18       1.0  0.36857274095721754  0.12349207159633532  0.09088913877672386  1.0000
  H   H19       1.0  0.36857274057846034  0.8765079281240605  0.5908891385725811  1.0000
  H   H20       1.0  0.631427259089227  0.8765079281240605  0.9091108615575565  1.0000
  H   H21       1.0  0.6975136963533969  0.9293251657403693  0.41944060140495876  1.0000
  H   H22       1.0  0.3024863034089147  0.9293251657403693  0.08055939852755759  1.0000
  H   H23       1.0  0.30248630369304763  0.07067483398002652  0.5805593989293214  1.0000
  H   H24       1.0  0.6975136964657066  0.07067483398002652  0.9194406012027824  1.0000
  H   H25       1.0  0.7526455407564938  0.16579402887376124  0.3564030075857121  1.0000
  H   H26       1.0  0.2473544594968849  0.16579402887376124  0.14359699234877063  1.0000
  H   H27       1.0  0.2473544592899508  0.8342059708466346  0.6435969927485682  1.0000
  H   H28       1.0  0.7526455408688035  0.8342059708466346  0.8564030073835357  1.0000
  H   H29       1.0  0.6904598971707538  0.3679649121387063  0.3526463784464292  1.0000
  H   H30       1.0  0.30954010259155784  0.3679649121387063  0.1473536214860872  1.0000
  H   H31       1.0  0.3095401027038676  0.6320350875816896  0.6473536212839107  1.0000
  H   H32       1.0  0.6904598972830636  0.6320350875816896  0.8526463782442528  1.0000
  H   H33       1.0  0.8683116734516864  0.3207580546432102  0.5561808508331434  1.0000
  H   H34       1.0  0.13168832670706787  0.3207580546432102  0.9438191492989605  1.0000
  H   H35       1.0  0.13168832642293493  0.6792419450771857  0.44381914889719654  1.0000
  H   H36       1.0  0.8683116733393769  0.6792419450771857  0.05618085103531986  1.0000
  H   H37       1.0  0.8537282731463831  0.13120214423268206  0.4770303055920963  1.0000
  H   H38       1.0  0.14627172661592852  0.13120214423268206  0.022969694340420052  1.0000
  H   H39       1.0  0.14627172690006146  0.8687978554877138  0.5229696947421839  1.0000
  H   H40       1.0  0.853728273258693  0.8687978554877138  0.97703030538992  1.0000
  H   H41       1.0  0.7958977315793456  0.9103283320508937  0.5419763395213667  1.0000
  H   H42       1.0  0.20410226840758558  0.9103283320508937  0.9580236600067968  1.0000
  H   H43       1.0  0.20410226829527583  0.0896716676695021  0.4580236602089733  1.0000
  H   H44       1.0  0.7958977314670359  0.0896716676695021  0.04197633972354309  1.0000
  H   H45       1.0  0.8051392895567945  0.10609224359432409  0.6183656236211339  1.0000
  H   H46       1.0  0.1948607099390699  0.10609224359432409  0.8816343759050634  1.0000
  H   H47       1.0  0.19486071031782715  0.8939077561260718  0.38163437610920614  1.0000
  H   H48       1.0  0.8051392899355515  0.8939077561260718  0.1183656238252766  1.0000
  C   C1        1.0  0.7433697661130788  0.5016475959587641  0.5014137975881072  1.0000
  C   C2        1.0  0.2566302338738524  0.5016475959587641  0.9985862019400563  1.0000
  C   C3        1.0  0.2566302337615426  0.4983524037616318  0.49858620214223276  1.0000
  C   C4        1.0  0.743369766000769  0.4983524037616318  0.0014137977902836068  1.0000
  C   C5        1.0  0.701694781205151  0.35144506715702173  0.5389336463971357  1.0000
  C   C6        1.0  0.29830521895360324  0.35144506715702173  0.9610663537349682  1.0000
  C   C7        1.0  0.29830521866947035  0.6485549341672041  0.4610663533332043  1.0000
  C   C8        1.0  0.7016947810928413  0.6485549341672041  0.038933646599312095  1.0000
  C   C9        1.0  0.6878255184173416  0.09643219757528407  0.4317403982102876  1.0000
  C   C10       1.0  0.31217448183603697  0.09643219757528407  0.06825960172419517  1.0000
  C   C11       1.0  0.3121744814572798  0.9035678037489417  0.5682596015200524  1.0000
  C   C12       1.0  0.6878255185296515  0.9035678037489417  0.9317403980081111  1.0000
  C   C13       1.0  0.7265171128671554  0.25264463337750487  0.392342222690553  1.0000
  C   C14       1.0  0.2734828873862233  0.25264463337750487  0.10765777724392972  1.0000
  C   C15       1.0  0.2734828870074661  0.7473553679467209  0.6076577770397871  1.0000
  C   C16       1.0  0.7265171124883981  0.7473553679467209  0.8923422224864103  1.0000
  C   C17       1.0  0.828135767744779  0.22586322273360374  0.5117366959136012  1.0000
  C   C18       1.0  0.17186423241397522  0.22586322273360374  0.9882633042185027  1.0000
  C   C19       1.0  0.17186423212984234  0.7741367769867922  0.4882633038167388  1.0000
  C   C20       1.0  0.8281357681235363  0.7741367769867922  0.011736696117743882  1.0000
  C   C21       1.0  0.7880142808966851  0.07967742357753638  0.5529115468205763  1.0000
  C   C22       1.0  0.2119857192620692  0.07967742357753638  0.9470884533115275  1.0000
  C   C23       1.0  0.21198571897793625  0.9203225761428594  0.4470884529097636  1.0000
  C   C24       1.0  0.7880142807843753  0.9203225761428594  0.05291154702275274  1.0000
  C   C25       1.0  0.5968824833971696  0.37326817966736386  0.1388989074289151  1.0000
  C   C26       1.0  0.40311751685620906  0.37326817966736386  0.3611010925055676  1.0000
  C   C27       1.0  0.403117516649275  0.626731820053032  0.8611010929053652  1.0000
  C   C28       1.0  0.5968824835094794  0.626731820053032  0.6388989072267387  1.0000
  C   C29       1.0  0.5258436576948194  0.41407184057752355  0.11666255921189979  1.0000
  C   C30       1.0  0.4741563425585592  0.41407184057752355  0.3833374407225829  1.0000
  C   C31       1.0  0.47415634235162507  0.5859281607467023  0.8833374411223804  1.0000
  C   C32       1.0  0.5258436578071294  0.5859281607467023  0.6166625590097234  1.0000
  C   C33       1.0  0.5000375425113077  0.5830534077683979  0.15016723612877947  1.0000
  C   C34       1.0  0.4999624572510039  0.5830534077683979  0.3498327638037369  1.0000
  C   C35       1.0  0.49996245736331374  0.41694659195199796  0.8498327636015606  1.0000
  C   C36       1.0  0.5000375427954407  0.41694659195199796  0.6501672365305433  1.0000
  C   C37       1.0  0.5450352906047854  0.7234775888438169  0.20613698155653637  1.0000
  C   C38       1.0  0.4549647091575262  0.7234775888438169  0.29386301837598006  1.0000
  C   C39       1.0  0.454964709269836  0.276522410876579  0.7938630181738037  1.0000
  C   C40       1.0  0.5450352907170952  0.276522410876579  0.70613698135436  1.0000
  C   C41       1.0  0.616552429916045  0.685357520416163  0.2268727765777424  1.0000
  C   C42       1.0  0.3834475703373337  0.685357520416163  0.2731272233567403  1.0000
  C   C43       1.0  0.38344756995857643  0.3146424793042327  0.7731272231525975  1.0000
  C   C44       1.0  0.6165524302001779  0.3146424793042327  0.7268727769795064  1.0000
  C   C45       1.0  0.6413172237075104  0.5107788993278136  0.19564408045293477  1.0000
  C   C46       1.0  0.35868277654586833  0.5107788993278136  0.30435591948154794  1.0000
  C   C47       1.0  0.3586827763389343  0.4892211019964123  0.8043559198813456  1.0000
  C   C48       1.0  0.6413172233287531  0.4892211019964123  0.695644080248792  1.0000
  C   C49       1.0  0.8935799137162077  0.09282867547903885  0.8476620504080329  1.0000
  C   C50       1.0  0.10642008644254675  0.09282867547903885  0.652337949724071  1.0000
  C   C51       1.0  0.10642008664948081  0.907171324241357  0.15233794932427347  1.0000
  C   C52       1.0  0.8935799136038979  0.907171324241357  0.34766205061020933  1.0000
  C   C53       1.0  0.964222410496708  0.04460981088658933  0.8785879367203925  1.0000
  C   C54       1.0  0.03577758949022326  0.04460981088658933  0.6214120628077711  1.0000
  C   C55       1.0  0.03577758937791352  0.9553901888338066  0.12141206300994753  1.0000
  C   C56       1.0  0.9642224103843983  0.9553901888338066  0.37858793692256887  1.0000
  C   C57       1.0  0.9925258374837757  0.8744360620587498  0.8485280658043952  1.0000
  C   C58       1.0  0.007474162674978652  0.8744360620587498  0.6514719343277087  1.0000
  C   C59       1.0  0.007474162390845725  0.12556393766164617  0.1514719339259448  1.0000
  C   C60       1.0  0.9925258373714659  0.12556393766164617  0.3485280660065716  1.0000
  C   C61       1.0  0.9503720772932744  0.7412850607090432  0.7871785867117153  1.0000
  C   C62       1.0  0.04962792269365677  0.7412850607090432  0.7128214128164484  1.0000
  C   C63       1.0  0.04962792258134698  0.2587149390113526  0.2128214130186247  1.0000
  C   C64       1.0  0.9503720771809647  0.2587149390113526  0.2871785869138917  1.0000
  C   C65       1.0  0.8791399474807615  0.7870281025781002  0.7572778975105312  1.0000
  C   C66       1.0  0.1208600526779928  0.7870281025781002  0.7427221026215727  1.0000
  C   C67       1.0  0.12086005256568302  0.2129718971422957  0.2427221028237491  1.0000
  C   C68       1.0  0.8791399476876955  0.2129718971422957  0.2572778971107337  1.0000
  C   C69       1.0  0.852116045611127  0.9628739289828047  0.7854607679024004  1.0000
  C   C70       1.0  0.14788395454762746  0.9628739289828047  0.7145392322297035  1.0000
  C   C71       1.0  0.14788395443531768  0.03712607073759125  0.21453923243187986  1.0000
  C   C72       1.0  0.852116045326994  0.03712607073759125  0.2854607675006365  1.0000
  N   N1        1.0  0.7127470407608198  0.12709576209472886  0.5200741356333802  1.0000
  N   N2        1.0  0.28725295939793455  0.12709576209472886  0.9799258644987237  1.0000
  N   N3        1.0  0.2872529592856247  0.872904237625667  0.4799258647009001  1.0000
  N   N4        1.0  0.712747040476687  0.872904237625667  0.020074135231616306  1.0000
  N   N5        1.0  0.7790275077414119  0.37519964805970124  0.4559265778054606  1.0000
  N   N6        1.0  0.22097249268378985  0.37519964805970124  0.044073422732962476  1.0000
  N   N7        1.0  0.22097249230503263  0.6248003516606946  0.5440734225288197  1.0000
  N   N8        1.0  0.7790275073626548  0.6248003516606946  0.9559265776013178  1.0000
  N   N9        1.0  0.5226950294208477  0.9168764009948591  0.23309119909909676  1.0000
  N   N10       1.0  0.4773049708325311  0.9168764009948591  0.266908800835386  1.0000
  N   N11       1.0  0.4773049704537738  0.08312359872553675  0.7669088006312433  1.0000
  N   N12       1.0  0.5226950292139135  0.08312359872553675  0.7330911994988942  1.0000
  N   N13       1.0  0.9752255664378764  0.5467623598851905  0.7636352251279148  1.0000
  N   N14       1.0  0.02477443354905488  0.5467623598851905  0.7363647744002488  1.0000
  N   N15       1.0  0.024774433436745086  0.4532376398352054  0.23636477460242522  1.0000
  N   N16       1.0  0.9752255663255666  0.4532376398352054  0.26363522533009115  1.0000
  F   F1        1.0  0.4302307923621281  0.6168269654252271  0.12556036252500843  1.0000
  F   F2        1.0  0.5697692078912505  0.6168269654252271  0.3744396374094744  1.0000
  F   F3        1.0  0.5697692076843165  0.3831730342951688  0.8744396378092718  1.0000
  F   F4        1.0  0.4302307924744379  0.3831730342951688  0.6255603623228321  1.0000
  F   F5        1.0  0.47965613627562975  0.2890044166023385  0.06061346591601022  1.0000
  F   F6        1.0  0.520343863977749  0.2890044166023385  0.43938653401847255  1.0000
  F   F7        1.0  0.5203438637708149  0.7109955831180574  0.93938653441827  1.0000
  F   F8        1.0  0.47965613589687245  0.7109955831180574  0.5606134657118674  1.0000
  F   F9        1.0  0.661787083294531  0.8148859189043042  0.28115551233491226  1.0000
  F   F10       1.0  0.33821291663960384  0.8148859189043042  0.21884448820154434  1.0000
  F   F11       1.0  0.3382129167519136  0.1851140808160917  0.718844487999368  1.0000
  F   F12       1.0  0.6617870834068408  0.1851140808160917  0.7811555121327359  1.0000
  F   F13       1.0  0.7110295108894538  0.4780036600790239  0.2212882239594616  1.0000
  F   F14       1.0  0.2889704888728579  0.4780036600790239  0.27871177597305474  1.0000
  F   F15       1.0  0.2889704891569908  0.521996341245202  0.7787117763748187  1.0000
  F   F16       1.0  0.7110295110017635  0.521996341245202  0.7212882237572852  1.0000
  F   F17       1.0  0.7833363974422843  0.006081115447940207  0.7509007484226287  1.0000
  F   F18       1.0  0.21666360271647  0.006081115447940207  0.7490992517094751  1.0000
  F   F19       1.0  0.21666360260416023  0.9939188842724556  0.24909925191165153  1.0000
  F   F20       1.0  0.7833363971581514  0.9939188842724556  0.25090074802086487  1.0000
  F   F21       1.0  0.8370748273740991  0.662989128164865  0.6977194106216492  1.0000
  F   F22       1.0  0.16292517261283196  0.662989128164865  0.8022805889065143  1.0000
  F   F23       1.0  0.16292517250052224  0.33701087155553094  0.3022805891086908  1.0000
  F   F24       1.0  0.8370748272617894  0.33701087155553094  0.19771941082382563  1.0000
  F   F25       1.0  0.007574484251560995  0.16372965910979584  0.939239513254484  1.0000
  F   F26       1.0  0.9924255157353703  0.16372965910979584  0.5607604862736797  1.0000
  F   F27       1.0  0.9924255156230606  0.8362703406106  0.060760486475856045  1.0000
  F   F28       1.0  0.00757448413925122  0.8362703406106  0.4392395134566603  1.0000
  F   F29       1.0  0.06158849850258904  0.8325463147485035  0.8813944825656137  1.0000
  F   F30       1.0  0.9384115016561653  0.8325463147485035  0.6186055175664902  1.0000
  F   F31       1.0  0.9384115013720324  0.1674536849718924  0.11860551716472625  1.0000
  F   F32       1.0  0.06158849888134631  0.1674536849718924  0.3813944827697565  1.0000
  I   I1        1.0  0.6413627290626182  0.13096281109948274  0.08483868237689904  1.0000
  I   I2        1.0  0.35863727069969353  0.13096281109948274  0.41516131755561736  1.0000
  I   I3        1.0  0.3586372709838264  0.8690371886209132  0.9151613179573812  1.0000
  I   I4        1.0  0.641362729174928  0.8690371886209132  0.5848386821747227  1.0000
  I   I5        1.0  0.8471509558829521  0.34406350862013724  0.8957939417884838  1.0000
  I   I6        1.0  0.1528490441039791  0.34406350862013724  0.60420605773968  1.0000
  I   I7        1.0  0.1528490444827363  0.6559364927040885  0.10420605794382261  1.0000
  I   I8        1.0  0.8471509557706424  0.6559364927040885  0.3957939419906601  1.0000
