data_image0
_chemical_formula_structural       H32C64N8F32S8I8
_chemical_formula_sum              "H32 C64 N8 F32 S8 I8"
_cell_length_a       32.29405340444783
_cell_length_b       5.364800072872712
_cell_length_c       11.36008191843451
_cell_angle_alpha    90.0
_cell_angle_beta     91.55103422947401
_cell_angle_gamma    90.0

_space_group_name_H-M_alt    "P 1"
_space_group_IT_number       1

loop_
  _space_group_symop_operation_xyz
  'x, y, z'

loop_
  _atom_site_type_symbol
  _atom_site_label
  _atom_site_symmetry_multiplicity
  _atom_site_fract_x
  _atom_site_fract_y
  _atom_site_fract_z
  _atom_site_occupancy
  H   H1        1.0  0.7839213754238368  0.5088378099686118  0.8331849842911345  1.0000
  H   H2        1.0  0.21607862469042255  0.5088378099686118  0.6668150157929129  1.0000
  H   H3        1.0  0.28392137533840256  0.00883780930434776  0.8331849841420017  1.0000
  H   H4        1.0  0.7160786247758567  0.00883780930434776  0.6668150159420456  1.0000
  H   H5        1.0  0.2160786246037307  0.49116218949591395  0.1668150155694725  1.0000
  H   H6        1.0  0.7839213753371449  0.49116218949591395  0.333184984067694  1.0000
  H   H7        1.0  0.7160786246891649  0.991162190160178  0.16681501571860524  1.0000
  H   H8        1.0  0.2839213752517108  0.991162190160178  0.3331849839185612  1.0000
  H   H9        1.0  0.7738546225696881  0.605281713370765  0.9800077299836619  1.0000
  H   H10       1.0  0.22614537754457117  0.605281713370765  0.5199922701003854  1.0000
  H   H11       1.0  0.273854622484254  0.1052817127065009  0.9800077298345291  1.0000
  H   H12       1.0  0.7261453776300053  0.1052817127065009  0.5199922702495181  1.0000
  H   H13       1.0  0.22614537745787935  0.3947182879577632  0.019992269876945  1.0000
  H   H14       1.0  0.7738546224829964  0.3947182879577632  0.4800077297602215  1.0000
  H   H15       1.0  0.7261453775433135  0.8947182867580249  0.01999227002607773  1.0000
  H   H16       1.0  0.27385462239756214  0.8947182867580249  0.4800077296110888  1.0000
  H   H17       1.0  0.7050028832166289  0.4329801089411656  0.09334435683028572  1.0000
  H   H18       1.0  0.2949971167242469  0.4329801089411656  0.40665564280688077  1.0000
  H   H19       1.0  0.20500288313819004  0.9329801077414274  0.09334435756174213  1.0000
  H   H20       1.0  0.7949971168096811  0.9329801077414274  0.40665564295601353  1.0000
  H   H21       1.0  0.2949971168109387  0.5670198923873626  0.9066556430303212  1.0000
  H   H22       1.0  0.7050028833033206  0.5670198923873626  0.5933443570537261  1.0000
  H   H23       1.0  0.7949971168963728  0.06701989172309847  0.906655643179454  1.0000
  H   H24       1.0  0.20500288321788646  0.06701989172309847  0.5933443569045934  1.0000
  H   H25       1.0  0.6700101487147915  0.2202364457110746  0.02372327275277576  1.0000
  H   H26       1.0  0.3299898512330796  0.2202364457110746  0.47627672776497987  1.0000
  H   H27       1.0  0.17001014862935732  0.7202364463753387  0.023723272603643035  1.0000
  H   H28       1.0  0.8299898513115183  0.7202364463753387  0.47627672703352353  1.0000
  H   H29       1.0  0.32998985131277603  0.7797635537534512  0.9762767271078311  1.0000
  H   H30       1.0  0.6700101488014832  0.7797635537534512  0.5237232729762161  1.0000
  H   H31       1.0  0.8299898513982102  0.2797635549531895  0.9762767272569639  1.0000
  H   H32       1.0  0.17001014871604914  0.2797635549531895  0.5237232728270834  1.0000
  C   C1        1.0  0.39611422245742467  0.9515664424874687  0.19620620937365296  1.0000
  C   C2        1.0  0.6038857774904464  0.9515664424874687  0.3037937911441027  1.0000
  C   C3        1.0  0.8961142225428588  0.4515664436872071  0.1962062095227857  1.0000
  C   C4        1.0  0.10388577771470128  0.4515664436872071  0.3037937909989202  1.0000
  C   C5        1.0  0.6038857775701427  0.04843355697705699  0.8037937904869539  1.0000
  C   C6        1.0  0.39611422254411655  0.04843355697705699  0.6962062095970933  1.0000
  C   C7        1.0  0.10388577748470862  0.5484335576413211  0.8037937903378211  1.0000
  C   C8        1.0  0.8961142223128663  0.5484335576413211  0.6962062088616867  1.0000
  C   C9        1.0  0.39311928603190277  0.7893168025798434  0.29144744913685955  1.0000
  C   C10       1.0  0.6068807139089728  0.7893168025798434  0.20855255050030697  1.0000
  C   C11       1.0  0.8931192861173369  0.2893168037795817  0.2914474492859923  1.0000
  C   C12       1.0  0.10688071382353875  0.2893168037795817  0.20855255035117418  1.0000
  C   C13       1.0  0.6068807139956647  0.21068319688468237  0.7085525507237475  1.0000
  C   C14       1.0  0.3931192861185946  0.21068319688468237  0.7914474493603  1.0000
  C   C15       1.0  0.10688071391023057  0.7106831975489464  0.7085525505746146  1.0000
  C   C16       1.0  0.8931192858943398  0.7106831975489464  0.7914474495054825  1.0000
  C   C17       1.0  0.4221862195557616  0.6030486422707668  0.3124677863664116  1.0000
  C   C18       1.0  0.577813780385114  0.6030486422707668  0.1875322132707549  1.0000
  C   C19       1.0  0.9221862196411958  0.10304864160650276  0.3124677865155443  1.0000
  C   C20       1.0  0.07781378060936893  0.10304864160650276  0.18753221312557242  1.0000
  C   C21       1.0  0.5778137804718059  0.3969513590577613  0.6875322134941954  1.0000
  C   C22       1.0  0.4221862196424535  0.3969513590577613  0.8124677865898521  1.0000
  C   C23       1.0  0.07781378038637171  0.8969513578580229  0.6875322133450626  1.0000
  C   C24       1.0  0.9221862194181986  0.8969513578580229  0.8124677867350344  1.0000
  C   C25       1.0  0.4565078195597192  0.5756336281039398  0.24052065071679804  1.0000
  C   C26       1.0  0.5434921803811565  0.5756336281039398  0.2594793489203685  1.0000
  C   C27       1.0  0.9565078196451533  0.07563362743967575  0.24052065086593075  1.0000
  C   C28       1.0  0.043492180295722306  0.07563362743967575  0.25947934877123574  1.0000
  C   C29       1.0  0.5434921804678483  0.4243663732245883  0.7594793491438089  1.0000
  C   C30       1.0  0.456507819646411  0.4243663732245883  0.7405206509402383  1.0000
  C   C31       1.0  0.043492180382414126  0.92436637202485  0.7594793489946761  1.0000
  C   C32       1.0  0.9565078197318452  0.92436637202485  0.7405206510893712  1.0000
  C   C33       1.0  0.45996715930392584  0.7428222721944018  0.14595666477362235  1.0000
  C   C34       1.0  0.5400328409466388  0.7428222721944018  0.3540433348674944  1.0000
  C   C35       1.0  0.959967159079671  0.24282227339414  0.1459566649188048  1.0000
  C   C36       1.0  0.04003284086120473  0.24282227339414  0.35404333471836175  1.0000
  C   C37       1.0  0.5400328407236417  0.25717772727012406  0.8540433350869846  1.0000
  C   C38       1.0  0.4599671590809286  0.25717772727012406  0.6459566649931126  1.0000
  C   C39       1.0  0.040032840947896546  0.7571777279343882  0.8540433349418021  1.0000
  C   C40       1.0  0.9599671591663628  0.7571777279343882  0.6459566651422453  1.0000
  C   C41       1.0  0.4299958787163673  0.9246502763603911  0.12392465075980455  1.0000
  C   C42       1.0  0.5700041212245084  0.9246502763603911  0.37607534887736194  1.0000
  C   C43       1.0  0.9299958788018015  0.4246502756961271  0.12392465090893727  1.0000
  C   C44       1.0  0.07000412114606966  0.4246502756961271  0.3760753496088184  1.0000
  C   C45       1.0  0.5700041213112003  0.0753497231041346  0.8760753491008023  1.0000
  C   C46       1.0  0.4299958788030591  0.0753497231041346  0.623924650983245  1.0000
  C   C47       1.0  0.07000412122576602  0.5753497237683987  0.8760753489516696  1.0000
  C   C48       1.0  0.9299958788884932  0.5753497237683987  0.6239246511323777  1.0000
  C   C49       1.0  0.7719330577833838  0.4477906739055098  0.9181729651963687  1.0000
  C   C50       1.0  0.2280669423308754  0.4477906739055098  0.5818270348876787  1.0000
  C   C51       1.0  0.2719330576979498  0.9477906745697738  0.9181729650472359  1.0000
  C   C52       1.0  0.7280669421066205  0.9477906745697738  0.5818270350328612  1.0000
  C   C53       1.0  0.22806694224418358  0.5522093255590159  0.08182703466423832  1.0000
  C   C54       1.0  0.7719330576966921  0.5522093255590159  0.41817296497292816  1.0000
  C   C55       1.0  0.7280669423296178  0.05220932489475188  0.08182703481337104  1.0000
  C   C56       1.0  0.2719330576112579  0.05220932489475188  0.41817296482379546  1.0000
  C   C57       1.0  0.7028555693911928  0.2715400630428234  0.03378036924638936  1.0000
  C   C58       1.0  0.2971444305496829  0.2715400630428234  0.4662196303907772  1.0000
  C   C59       1.0  0.20285556930575854  0.7715400637070875  0.03378036909725663  1.0000
  C   C60       1.0  0.7971444306351171  0.7715400637070875  0.4662196305399099  1.0000
  C   C61       1.0  0.2971444306363748  0.7284599364217024  0.9662196306142176  1.0000
  C   C62       1.0  0.7028555691681955  0.7284599364217024  0.5337803694658795  1.0000
  C   C63       1.0  0.797144430721809  0.22845993762144062  0.9662196307633504  1.0000
  C   C64       1.0  0.20285556939245036  0.22845993762144062  0.5337803693206971  1.0000
  N   N1        1.0  0.48061989541318334  0.35576984492881125  0.2522578699912832  1.0000
  N   N2        1.0  0.5193801045276923  0.35576984492881125  0.24774212964588332  1.0000
  N   N3        1.0  0.9806198954986175  0.8557698455930752  0.25225787014041595  1.0000
  N   N4        1.0  0.019380104751947198  0.8557698455930752  0.24774212950070082  1.0000
  N   N5        1.0  0.5193801046143841  0.6442301545357145  0.7477421298693238  1.0000
  N   N6        1.0  0.48061989549987516  0.6442301545357145  0.7522578702147235  1.0000
  N   N7        1.0  0.019380104528949994  0.14423015387145047  0.7477421297201909  1.0000
  N   N8        1.0  0.9806198952756203  0.14423015387145047  0.7522578703599061  1.0000
  F   F1        1.0  0.3606004760115386  0.8066535250553553  0.3639120039535349  1.0000
  F   F2        1.0  0.6393995239293371  0.8066535250553553  0.1360879956836316  1.0000
  F   F3        1.0  0.8606004760969728  0.3066535262550935  0.3639120041026676  1.0000
  F   F4        1.0  0.13939952384390292  0.3066535262550935  0.13608799553449888  1.0000
  F   F5        1.0  0.63939952370634  0.1933464744091705  0.6360879959031218  1.0000
  F   F6        1.0  0.3606004760982304  0.1933464744091705  0.8639120041769753  1.0000
  F   F7        1.0  0.1393995239305947  0.6933464750734346  0.6360879957579393  1.0000
  F   F8        1.0  0.8606004761836646  0.6933464750734346  0.863912004326108  1.0000
  F   F9        1.0  0.41742693049833396  0.44472414397400567  0.4036195552305354  1.0000
  F   F10       1.0  0.5825730694425417  0.44472414397400567  0.09638044440663111  1.0000
  F   F11       1.0  0.9174269305837681  0.9447241446382697  0.4036195553796681  1.0000
  F   F12       1.0  0.08257306935710751  0.9447241446382697  0.09638044425749838  1.0000
  F   F13       1.0  0.5825730695292334  0.5552758554905202  0.5963804446300716  1.0000
  F   F14       1.0  0.41742693058502583  0.5552758554905202  0.9036195554539757  1.0000
  F   F15       1.0  0.08257306944379933  0.05527585482625607  0.5963804444809389  1.0000
  F   F16       1.0  0.91742693067046  0.05527585482625607  0.9036195556031085  1.0000
  F   F17       1.0  0.49147179335131286  0.7208713964114499  0.07109865671483216  1.0000
  F   F18       1.0  0.5085282065965582  0.7208713964114499  0.4289013438029235  1.0000
  F   F19       1.0  0.991471793436747  0.22087139574718578  0.07109865686396488  1.0000
  F   F20       1.0  0.008528206511124048  0.22087139574718578  0.42890134365379073  1.0000
  F   F21       1.0  0.5085282066762545  0.2791286049170783  0.9289013431457748  1.0000
  F   F22       1.0  0.49147179343800473  0.2791286049170783  0.5710986569382726  1.0000
  F   F23       1.0  0.008528206590820429  0.7791286037173399  0.928901342996642  1.0000
  F   F24       1.0  0.9914717935164435  0.7791286037173399  0.5710986562068162  1.0000
  F   F25       1.0  0.4346084287987814  0.07669929436525394  0.030520827528446016  1.0000
  F   F26       1.0  0.5653915711420943  0.07669929436525394  0.4694791721087205  1.0000
  F   F27       1.0  0.9346084288842156  0.576699295029518  0.03052082767757875  1.0000
  F   F28       1.0  0.06539157105666006  0.576699295029518  0.46947917195958766  1.0000
  F   F29       1.0  0.5653915709190971  0.9233007050992719  0.9694791723282106  1.0000
  F   F30       1.0  0.43460842888547324  0.9233007050992719  0.5305208277518865  1.0000
  F   F31       1.0  0.0653915711433519  0.4233007044350077  0.9694791721830283  1.0000
  F   F32       1.0  0.9346084289709073  0.4233007044350077  0.5305208279010191  1.0000
  S   S1        1.0  0.718303372301245  0.36459984406326806  0.8875062799961803  1.0000
  S   S2        1.0  0.2816966278130144  0.36459984406326806  0.6124937200878671  1.0000
  S   S3        1.0  0.21830337221581075  0.8645998428635296  0.8875062798470476  1.0000
  S   S4        1.0  0.7816966278984486  0.8645998428635296  0.6124937202369998  1.0000
  S   S5        1.0  0.28169662773331805  0.6354001554012577  0.11249372074501578  1.0000
  S   S6        1.0  0.7183033722145531  0.6354001554012577  0.3875062797727399  1.0000
  S   S7        1.0  0.7816966278117568  0.135400156600996  0.11249372001355938  1.0000
  S   S8        1.0  0.21830337212911896  0.135400156600996  0.38750627962360706  1.0000
  I   I1        1.0  0.3495373400408227  0.2192177777410166  0.16191368722918256  1.0000
  I   I2        1.0  0.650462659900053  0.2192177777410166  0.3380863124079839  1.0000
  I   I3        1.0  0.8495373401262568  0.7192177784052807  0.16191368737831532  1.0000
  I   I4        1.0  0.15046265982161428  0.7192177784052807  0.3380863131394403  1.0000
  I   I5        1.0  0.6504626599867449  0.7807822217235091  0.8380863126314244  1.0000
  I   I6        1.0  0.34953734012751453  0.7807822217235091  0.661913687452623  1.0000
  I   I7        1.0  0.15046265990131066  0.28078222105924505  0.8380863124822916  1.0000
  I   I8        1.0  0.8495373402129487  0.28078222105924505  0.6619136876017557  1.0000
