data_image0
_chemical_formula_structural       H56C104N16F32I8
_chemical_formula_sum              "H56 C104 N16 F32 I8"
_cell_length_a       28.08305068681431
_cell_length_b       5.31936121102501
_cell_length_c       17.596642913597986
_cell_angle_alpha    90.0
_cell_angle_beta     97.33999039511545
_cell_angle_gamma    90.0

_space_group_name_H-M_alt    "P 1"
_space_group_IT_number       1

loop_
  _space_group_symop_operation_xyz
  'x, y, z'

loop_
  _atom_site_type_symbol
  _atom_site_label
  _atom_site_symmetry_multiplicity
  _atom_site_fract_x
  _atom_site_fract_y
  _atom_site_fract_z
  _atom_site_occupancy
  H   H1        1.0  0.0877234020599783  0.7930397753882042  0.9032610827384986  1.0000
  H   H2        1.0  0.9122765981329921  0.7930397753882042  0.5967389169239355  1.0000
  H   H3        1.0  0.5877234021644103  0.29303977642451384  0.903261082865231  1.0000
  H   H4        1.0  0.41227659802856015  0.29303977642451384  0.5967389167972031  1.0000
  H   H5        1.0  0.912276598005238  0.20696022441910158  0.09673891692824466  1.0000
  H   H6        1.0  0.08772340193222422  0.20696022441910158  0.40326108274280764  1.0000
  H   H7        1.0  0.4122765979008061  0.706960223382792  0.0967389168015123  1.0000
  H   H8        1.0  0.5877234020366562  0.706960223382792  0.40326108286954  1.0000
  H   H9        1.0  0.13352323800471114  0.09224704255521798  0.8312999343089922  1.0000
  H   H10       1.0  0.8664767621882592  0.09224704255521798  0.6687000653534418  1.0000
  H   H11       1.0  0.633523238109143  0.5922470433988334  0.8312999344357246  1.0000
  H   H12       1.0  0.3664767621264991  0.5922470433988334  0.6687000657996719  1.0000
  H   H13       1.0  0.8664767620605052  0.9077529572520878  0.16870006535775098  1.0000
  H   H14       1.0  0.13352323787695708  0.9077529572520878  0.33129993431330135  1.0000
  H   H15       1.0  0.366476761998745  0.4077529564084724  0.16870006580398106  1.0000
  H   H16       1.0  0.633523237981389  0.4077529564084724  0.3312999344400337  1.0000
  H   H17       1.0  0.20738443187495723  0.22197833032144662  0.7875019661712814  1.0000
  H   H18       1.0  0.7926155679615292  0.22197833032144662  0.7124980334860118  1.0000
  H   H19       1.0  0.7073844319793893  0.721978331165062  0.7875019662980137  1.0000
  H   H20       1.0  0.2926155678570974  0.721978331165062  0.7124980333592795  1.0000
  H   H21       1.0  0.7926155678337752  0.7780216694858592  0.212498033490321  1.0000
  H   H22       1.0  0.20738443210368704  0.7780216694858592  0.2875019661807313  1.0000
  H   H23       1.0  0.29261556808582717  0.27802167052216875  0.2124980333687294  1.0000
  H   H24       1.0  0.707384431851635  0.27802167052216875  0.2875019663023229  1.0000
  H   H25       1.0  0.30071139038147726  0.964391703531539  0.8605546582038601  1.0000
  H   H26       1.0  0.6992886094976811  0.964391703531539  0.6394453420263956  1.0000
  H   H27       1.0  0.800711390485909  0.4643917045678487  0.8605546583305924  1.0000
  H   H28       1.0  0.199288609749733  0.4643917045678487  0.639445341904804  1.0000
  H   H29       1.0  0.6992886097264109  0.035608296275766754  0.13944534203584547  1.0000
  H   H30       1.0  0.3007113902537232  0.035608296275766754  0.3605546582081693  1.0000
  H   H31       1.0  0.19928860962197897  0.5356082952394572  0.13944534190911312  1.0000
  H   H32       1.0  0.8007113903581551  0.5356082952394572  0.3605546583349017  1.0000
  H   H33       1.0  0.2940110940811241  0.23526395000328473  0.7942474546514956  1.0000
  H   H34       1.0  0.7059889061545181  0.23526395000328473  0.7057525455839008  1.0000
  H   H35       1.0  0.7940110937864003  0.7352639489669751  0.7942474542001248  1.0000
  H   H36       1.0  0.20598890605008613  0.7352639489669751  0.7057525454571685  1.0000
  H   H37       1.0  0.7059889060267639  0.7647360498040211  0.20575254558820996  1.0000
  H   H38       1.0  0.2940110939106983  0.7647360498040211  0.2942474540828423  1.0000
  H   H39       1.0  0.2059889059223321  0.2647360508403307  0.20575254546147762  1.0000
  H   H40       1.0  0.7940110940151303  0.2647360508403307  0.2942474542095747  1.0000
  H   H41       1.0  0.21015003834270765  0.3855454628178582  0.9787083649991225  1.0000
  H   H42       1.0  0.7898499614937791  0.3855454628178582  0.5212916346581709  1.0000
  H   H43       1.0  0.7101500384471395  0.8855454617815486  0.9787083651258549  1.0000
  H   H44       1.0  0.2898499617885026  0.8855454617815486  0.5212916351095417  1.0000
  H   H45       1.0  0.7898499617225087  0.6144545369894476  0.02129163466762073  1.0000
  H   H46       1.0  0.2101500382149536  0.6144545369894476  0.4787083650034316  1.0000
  H   H47       1.0  0.28984996161807675  0.11445453802575722  0.021291634540888376  1.0000
  H   H48       1.0  0.7101500383193855  0.11445453802575722  0.47870836513016396  1.0000
  H   H49       1.0  0.26100828831331835  0.6580565844532084  0.9075065665346845  1.0000
  H   H50       1.0  0.7389917119223238  0.6580565844532084  0.592493433700712  1.0000
  H   H51       1.0  0.7610082884177504  0.15805658360959293  0.9075065666614168  1.0000
  H   H52       1.0  0.2389917118178919  0.15805658360959293  0.5924934335739795  1.0000
  H   H53       1.0  0.7389917117945697  0.34194341535409745  0.09249343370502114  1.0000
  H   H54       1.0  0.2610082881855643  0.34194341535409745  0.4075065665389937  1.0000
  H   H55       1.0  0.2389917116901378  0.841943416197713  0.09249343357828878  1.0000
  H   H56       1.0  0.7610082882899962  0.841943416197713  0.40750656666572604  1.0000
  C   C1        1.0  0.42735078037656044  0.4678911510730829  0.8912374176642651  1.0000
  C   C2        1.0  0.572649219502598  0.4678911510730829  0.6087625825659906  1.0000
  C   C3        1.0  0.9273507804809924  0.9678911500367733  0.8912374177909975  1.0000
  C   C4        1.0  0.07264921975464987  0.9678911500367733  0.608762582444399  1.0000
  C   C5        1.0  0.5726492197313277  0.5321088487342229  0.10876258257544054  1.0000
  C   C6        1.0  0.4273507802488063  0.5321088487342229  0.3912374176685742  1.0000
  C   C7        1.0  0.0726492196268958  0.03210884977053253  0.10876258244870818  1.0000
  C   C8        1.0  0.9273507803532381  0.03210884977053253  0.3912374177953066  1.0000
  C   C9        1.0  0.4766253637303189  0.4952195922585966  0.8910040199301379  1.0000
  C   C10       1.0  0.5233746361488394  0.4952195922585966  0.6089959803001178  1.0000
  C   C11       1.0  0.976625363792079  0.9952195931022121  0.8910040194839078  1.0000
  C   C12       1.0  0.023374636400891376  0.9952195931022121  0.6089959801785262  1.0000
  C   C13       1.0  0.5233746363775692  0.5047804075487092  0.10899598030956771  1.0000
  C   C14       1.0  0.47662536360256486  0.5047804075487092  0.3910040199344471  1.0000
  C   C15       1.0  0.0233746362731373  0.0047804067050938315  0.10899598018283535  1.0000
  C   C16       1.0  0.976625363664325  0.0047804067050938315  0.39100401948821695  1.0000
  C   C17       1.0  0.4954177068408921  0.6785367014594019  0.8470303036448712  1.0000
  C   C18       1.0  0.5045822930382662  0.6785367014594019  0.6529696965853845  1.0000
  C   C19       1.0  0.9954177069453239  0.17853670249571152  0.8470303037716036  1.0000
  C   C20       1.0  0.004582293290318183  0.17853670249571152  0.652969696463793  1.0000
  C   C21       1.0  0.504582293266996  0.3214632983479039  0.15296969659483448  1.0000
  C   C22       1.0  0.495417706713138  0.3214632983479039  0.3470303036491803  1.0000
  C   C23       1.0  0.004582293162564101  0.8214632973115942  0.1529696964681021  1.0000
  C   C24       1.0  0.99541770681757  0.8214632973115942  0.34703030377591265  1.0000
  C   C25       1.0  0.46546063468989207  0.8477302106602135  0.8019469210886968  1.0000
  C   C26       1.0  0.5345393655030783  0.8477302106602135  0.6980530785737372  1.0000
  C   C27       1.0  0.96546063443784  0.3477302098165981  0.8019469212102883  1.0000
  C   C28       1.0  0.03453936539864643  0.3477302098165981  0.6980530784470048  1.0000
  C   C29       1.0  0.5345393653753242  0.15226978914709233  0.1980530785780463  1.0000
  C   C30       1.0  0.465460634562138  0.15226978914709233  0.30194692109300597  1.0000
  C   C31       1.0  0.03453936527089235  0.6522697899907077  0.19805307845131395  1.0000
  C   C32       1.0  0.96546063466657  0.6522697899907077  0.3019469212197384  1.0000
  C   C33       1.0  0.39759731301689705  0.6303755370193894  0.8445697450829963  1.0000
  C   C34       1.0  0.6024026868622612  0.6303755370193894  0.6554302551472593  1.0000
  C   C35       1.0  0.897597313121329  0.13037553617577397  0.8445697452097287  1.0000
  C   C36       1.0  0.10240268675782929  0.13037553617577397  0.655430255020527  1.0000
  C   C37       1.0  0.6024026867345073  0.36962446278791644  0.15543025515156852  1.0000
  C   C38       1.0  0.3975973132456269  0.36962446278791644  0.34456974509244626  1.0000
  C   C39       1.0  0.10240268698655909  0.8696244636315318  0.15543025502997693  1.0000
  C   C40       1.0  0.897597312993575  0.8696244636315318  0.3445697452140379  1.0000
  C   C41       1.0  0.41580042765655006  0.8191131561002606  0.8021951683135474  1.0000
  C   C42       1.0  0.5841995721799365  0.8191131561002606  0.6978048313437457  1.0000
  C   C43       1.0  0.9158004277609819  0.3191131571365701  0.8021951684402797  1.0000
  C   C44       1.0  0.08419957243198842  0.3191131571365701  0.6978048312221542  1.0000
  C   C45       1.0  0.5841995724086663  0.18088684370704525  0.1978048313531957  1.0000
  C   C46       1.0  0.415800427528796  0.18088684370704525  0.3021951683178566  1.0000
  C   C47       1.0  0.08419957230423436  0.6808868426707357  0.19780483122646336  1.0000
  C   C48       1.0  0.915800427633228  0.6808868426707357  0.30219516844458894  1.0000
  C   C49       1.0  0.12627602982718153  0.7710945444912962  0.9031222411942385  1.0000
  C   C50       1.0  0.8737239700519768  0.7710945444912962  0.5968777590360173  1.0000
  C   C51       1.0  0.6262760299316134  0.2710945455276058  0.9031222413209707  1.0000
  C   C52       1.0  0.37372396994754487  0.2710945455276058  0.596877758909285  1.0000
  C   C53       1.0  0.8737239699242227  0.2289054553160096  0.09687775904032646  1.0000
  C   C54       1.0  0.12627603005591131  0.2289054553160096  0.40312224120368834  1.0000
  C   C55       1.0  0.3737239701762746  0.7289054542797  0.09687775891873487  1.0000
  C   C56       1.0  0.6262760298038593  0.7289054542797  0.4031222413252799  1.0000
  C   C57       1.0  0.15200644605862665  0.9363709912529535  0.8625245305728375  1.0000
  C   C58       1.0  0.8479935538205318  0.9363709912529535  0.6374754696574182  1.0000
  C   C59       1.0  0.6520064461203867  0.4363709922892631  0.8625245301266073  1.0000
  C   C60       1.0  0.34799355407258364  0.4363709922892631  0.6374754695358266  1.0000
  C   C61       1.0  0.8479935540492614  0.06362900855435227  0.13747546966686808  1.0000
  C   C62       1.0  0.1520064459308726  0.06362900855435227  0.36252453057714673  1.0000
  C   C63       1.0  0.3479935539448295  0.5636290075180427  0.13747546954013573  1.0000
  C   C64       1.0  0.6520064459926327  0.5636290075180427  0.36252453013091657  1.0000
  C   C65       1.0  0.2017416616053471  0.9046582661140088  0.8635124351601464  1.0000
  C   C66       1.0  0.798258338630295  0.9046582661140088  0.6364875650752502  1.0000
  C   C67       1.0  0.7017416613106234  0.4046582652703935  0.8635124347087754  1.0000
  C   C68       1.0  0.2982583385258632  0.4046582652703935  0.6364875649485179  1.0000
  C   C69       1.0  0.7982583385025409  0.09534173369329695  0.1364875650795593  1.0000
  C   C70       1.0  0.20174166147759304  0.09534173369329695  0.36351243516445547  1.0000
  C   C71       1.0  0.29825833839810906  0.5953417345369124  0.13648756495282696  1.0000
  C   C72       1.0  0.7017416615393531  0.5953417345369124  0.36351243471822536  1.0000
  C   C73       1.0  0.22892684377164219  0.08360857485635956  0.8226105060140674  1.0000
  C   C74       1.0  0.7710731564213282  0.08360857485635956  0.6773894936483666  1.0000
  C   C75       1.0  0.7289268438760741  0.583608575699975  0.8226105061407997  1.0000
  C   C76       1.0  0.2710731563168963  0.583608575699975  0.6773894935216344  1.0000
  C   C77       1.0  0.7710731562935742  0.9163914249509462  0.1773894936526758  1.0000
  C   C78       1.0  0.2289268436438881  0.9163914249509462  0.32261050601837654  1.0000
  C   C79       1.0  0.27107315618914224  0.4163914241073309  0.17738949352594344  1.0000
  C   C80       1.0  0.72892684374832  0.4163914241073309  0.3226105061451089  1.0000
  C   C81       1.0  0.27686239862374706  0.09339459951889027  0.8260665952227021  1.0000
  C   C82       1.0  0.7231376012554113  0.09339459951889027  0.6739334050075536  1.0000
  C   C83       1.0  0.776862398728179  0.5933946003625057  0.8260665953494344  1.0000
  C   C84       1.0  0.2231376015074632  0.5933946003625057  0.673933404885962  1.0000
  C   C85       1.0  0.7231376014841411  0.9066054002884156  0.17393340501700363  1.0000
  C   C86       1.0  0.276862398495993  0.9066054002884156  0.3260665952270112  1.0000
  C   C87       1.0  0.22313760137970914  0.4066053994448002  0.17393340489027126  1.0000
  C   C88       1.0  0.7768623986004248  0.4066053994448002  0.32606659535374355  1.0000
  C   C89       1.0  0.19462292475113765  0.5446753858329735  0.9449064960538442  1.0000
  C   C90       1.0  0.8053770754845044  0.5446753858329735  0.5550935041815521  1.0000
  C   C91       1.0  0.6946229248128978  0.04467538498935802  0.9449064956076142  1.0000
  C   C92       1.0  0.3053770753800726  0.04467538498935802  0.5550935040548198  1.0000
  C   C93       1.0  0.8053770753567505  0.45532461397433244  0.05509350418586136  1.0000
  C   C94       1.0  0.19462292462338357  0.45532461397433244  0.4449064960581534  1.0000
  C   C95       1.0  0.30537707525231855  0.9553246148179478  0.05509350405912901  1.0000
  C   C96       1.0  0.6946229246851437  0.9553246148179478  0.4449064956119233  1.0000
  C   C97       1.0  0.22287856915088863  0.6987860069167473  0.9054390108119055  1.0000
  C   C98       1.0  0.7771214310420819  0.6987860069167473  0.5945609888505284  1.0000
  C   C99       1.0  0.7228785688988367  0.19878600795305693  0.9054390109334972  1.0000
  C   C100      1.0  0.2771214309803216  0.19878600795305693  0.5945609892967586  1.0000
  C   C101      1.0  0.7771214309143277  0.3012139928905585  0.09456098885483764  1.0000
  C   C102      1.0  0.22287856902313458  0.3012139928905585  0.4054390108162147  1.0000
  C   C103      1.0  0.2771214308525676  0.8012139918542489  0.09456098930106777  1.0000
  C   C104      1.0  0.7228785691275664  0.8012139918542489  0.40543901094294704  1.0000
  N   N1        1.0  0.4827049543161256  0.0680119615208998  0.7694410368521987  1.0000
  N   N2        1.0  0.5172950455630327  0.0680119615208998  0.730558963378057  1.0000
  N   N3        1.0  0.9827049544205575  0.5680119623645152  0.769441036978931  1.0000
  N   N4        1.0  0.017295045815084665  0.5680119623645152  0.7305589632564655  1.0000
  N   N5        1.0  0.5172950457917626  0.931988038286406  0.230558963387507  1.0000
  N   N6        1.0  0.48270495418837145  0.931988038286406  0.2694410368565078  1.0000
  N   N7        1.0  0.017295045687330587  0.43198803744279063  0.2305589632607746  1.0000
  N   N8        1.0  0.9827049542928035  0.43198803744279063  0.2694410369832401  1.0000
  N   N9        1.0  0.14711925684881288  0.5795617138408135  0.9443965457376822  1.0000
  N   N10       1.0  0.8528807433441574  0.5795617138408135  0.5556034539247517  1.0000
  N   N11       1.0  0.6471192569532448  0.07956171299719811  0.9443965458644147  1.0000
  N   N12       1.0  0.3528807432823974  0.07956171299719811  0.5556034543709819  1.0000
  N   N13       1.0  0.8528807432164034  0.4204382859664923  0.0556034539290609  1.0000
  N   N14       1.0  0.14711925672105883  0.4204382859664923  0.44439654574199144  1.0000
  N   N15       1.0  0.3528807431546433  0.9204382868101078  0.055603454375291024  1.0000
  N   N16       1.0  0.6471192568254908  0.9204382868101078  0.4443965458687238  1.0000
  F   F1        1.0  0.5076307670987559  0.3389108745357439  0.9334867937143987  1.0000
  F   F2        1.0  0.4923692330942146  0.3389108745357439  0.5665132059480356  1.0000
  F   F3        1.0  0.007630766994323944  0.8389108753793593  0.9334867935876662  1.0000
  F   F4        1.0  0.9923692331986466  0.8389108753793593  0.566513206074768  1.0000
  F   F5        1.0  0.4923692329664605  0.6610891252715619  0.06651320595234468  1.0000
  F   F6        1.0  0.5076307669710017  0.6610891252715619  0.4334867937187077  1.0000
  F   F7        1.0  0.9923692330708923  0.1610891244279465  0.06651320607907704  1.0000
  F   F8        1.0  0.007630766866569864  0.1610891244279465  0.4334867935919753  1.0000
  F   F9        1.0  0.5437237769731065  0.7018256350522626  0.850874292199811  1.0000
  F   F10       1.0  0.456276223219864  0.7018256350522626  0.649125707462623  1.0000
  F   F11       1.0  0.04372377686867454  0.2018256342086472  0.8508742920730787  1.0000
  F   F12       1.0  0.9562762233242958  0.2018256342086472  0.6491257075893553  1.0000
  F   F13       1.0  0.4562762230921099  0.2981743647550433  0.14912570746693207  1.0000
  F   F14       1.0  0.5437237768453523  0.2981743647550433  0.35087429220412025  1.0000
  F   F15       1.0  0.9562762231965417  0.7981743655986587  0.14912570759366445  1.0000
  F   F16       1.0  0.04372377674092046  0.7981743655986587  0.3508742920773879  1.0000
  F   F17       1.0  0.3491010310527303  0.6095891539155629  0.8409051401083669  1.0000
  F   F18       1.0  0.6508989688264281  0.6095891539155629  0.6590948601218888  1.0000
  F   F19       1.0  0.8491010311571622  0.10958915307194754  0.8409051402350993  1.0000
  F   F20       1.0  0.15089896872199604  0.10958915307194754  0.6590948599951564  1.0000
  F   F21       1.0  0.6508989686986738  0.3904108477716679  0.15909486012619795  1.0000
  F   F22       1.0  0.34910103128146014  0.3904108477716679  0.34090514011781686  1.0000
  F   F23       1.0  0.15089896895072585  0.8904108467353583  0.15909486000460635  1.0000
  F   F24       1.0  0.8491010313858921  0.8904108467353583  0.34090514024454927  1.0000
  F   F25       1.0  0.38540762354258545  0.9766337862585084  0.7592179810156727  1.0000
  F   F26       1.0  0.6145923763365728  0.9766337862585084  0.740782019214583  1.0000
  F   F27       1.0  0.8854076236470173  0.47663378541489304  0.759217981142405  1.0000
  F   F28       1.0  0.11459237623214094  0.47663378541489304  0.7407820190878507  1.0000
  F   F29       1.0  0.6145923762088188  0.02336621354879741  0.2407820192188922  1.0000
  F   F30       1.0  0.38540762377131527  0.02336621354879741  0.2592179810251226  1.0000
  F   F31       1.0  0.11459237646087074  0.5233662143924128  0.24078201909730057  1.0000
  F   F32       1.0  0.8854076238757472  0.5233662143924128  0.25921798115185496  1.0000
  I   I1        1.0  0.39740772611876063  0.2099167316717778  0.9643807583795383  1.0000
  I   I2        1.0  0.6025922741168815  0.2099167316717778  0.5356192418558582  1.0000
  I   I3        1.0  0.8974077258240369  0.7099167306354682  0.9643807579281674  1.0000
  I   I4        1.0  0.10259227401244958  0.7099167306354682  0.5356192417291258  1.0000
  I   I5        1.0  0.6025922739891274  0.7900832681355281  0.035619241860167294  1.0000
  I   I6        1.0  0.39740772599100666  0.7900832681355281  0.4643807583838475  1.0000
  I   I7        1.0  0.1025922738846955  0.2900832691718376  0.03561924173343494  1.0000
  I   I8        1.0  0.8974077260527668  0.2900832691718376  0.46438075793761746  1.0000
