data_image0
_chemical_formula_structural       H100C86N2O4F8I2
_chemical_formula_sum              "H100 C86 N2 O4 F8 I2"
_cell_length_a       5.895116097917883
_cell_length_b       15.359124738881185
_cell_length_c       20.889448644321117
_cell_angle_alpha    80.36891038516224
_cell_angle_beta     86.15186841917472
_cell_angle_gamma    90.12562809408156

_space_group_name_H-M_alt    "P 1"
_space_group_IT_number       1

loop_
  _space_group_symop_operation_xyz
  'x, y, z'

loop_
  _atom_site_type_symbol
  _atom_site_label
  _atom_site_symmetry_multiplicity
  _atom_site_fract_x
  _atom_site_fract_y
  _atom_site_fract_z
  _atom_site_occupancy
  H   H1        1.0  0.28389156010195143  0.27325601869876137  0.34454619717602847  1.0000
  H   H2        1.0  0.7161084401102648  0.7267439813932647  0.6554538027665896  1.0000
  H   H3        1.0  0.554330484970712  0.11923345060036458  0.41499440913045427  1.0000
  H   H4        1.0  0.4456695152415041  0.8807665494916614  0.5850055908121639  1.0000
  H   H5        1.0  0.005731750623844227  0.25375064566450756  0.4108316067223746  1.0000
  H   H6        1.0  0.994268249588372  0.7462493544275185  0.5891683932202435  1.0000
  H   H7        1.0  0.7004191107243151  0.22708932946426505  0.49931656665605195  1.0000
  H   H8        1.0  0.29958088948790124  0.772910670627761  0.5006834332865661  1.0000
  H   H9        1.0  0.08826330579217102  0.017603173136111316  0.6017019783910744  1.0000
  H   H10       1.0  0.9117366944200453  0.9823968269559146  0.3982980215515436  1.0000
  H   H11       1.0  0.3974037389102774  0.047351232034525285  0.5155918627719015  1.0000
  H   H12       1.0  0.6025962611668929  0.9526487679353105  0.4844081376573085  1.0000
  H   H13       1.0  0.8588912058867958  0.057127957195326824  0.6843007271033267  1.0000
  H   H14       1.0  0.14110879432542045  0.9428720428966993  0.31569927283929133  1.0000
  H   H15       1.0  0.7248340990382096  0.9799764447590559  0.6432331134368117  1.0000
  H   H16       1.0  0.27516590117400674  0.020023555332970365  0.35676688650580635  1.0000
  H   H17       1.0  0.34470778279866954  0.03934255962134553  0.6734997511303418  1.0000
  H   H18       1.0  0.6552922174135467  0.9606574404706806  0.32650024881227635  1.0000
  H   H19       1.0  0.47622421803085413  0.11668179712853877  0.713156176069756  1.0000
  H   H20       1.0  0.5237757821813622  0.8833182029634873  0.28684382387286206  1.0000
  H   H21       1.0  0.6362414592424752  0.9914208682209786  0.7907090215711223  1.0000
  H   H22       1.0  0.363758540969741  0.008579131871047379  0.2092909783714958  1.0000
  H   H23       1.0  0.5045134254600419  0.9149059444156888  0.7509535079589102  1.0000
  H   H24       1.0  0.4954865747521745  0.08509405567633706  0.24904649198370782  1.0000
  H   H25       1.0  0.251655756784444  0.051290418084783  0.8197743138400394  1.0000
  H   H26       1.0  0.7483442417329292  0.9487095820010224  0.18022568609713543  1.0000
  H   H27       1.0  0.12157439432477592  0.9734876338383557  0.780445438303575  1.0000
  H   H28       1.0  0.8784256058874403  0.026512366253670268  0.21955456163904297  1.0000
  H   H29       1.0  0.2863532460430298  0.8501975786735448  0.8571547105086391  1.0000
  H   H30       1.0  0.7136467541691864  0.14980242141848132  0.142845289433979  1.0000
  H   H31       1.0  0.4180849323789543  0.9275156663195546  0.8964197275861834  1.0000
  H   H32       1.0  0.5819150661384189  0.07248433376625069  0.10358027235099167  1.0000
  H   H33       1.0  0.05289558807190871  0.8715635710398577  0.9589303039599338  1.0000
  H   H34       1.0  0.9471044121403076  0.12843642905216837  0.04106969598268429  1.0000
  H   H35       1.0  0.8999632849479445  0.9063876621304854  0.8893275838397151  1.0000
  H   H36       1.0  0.1000367134343826  0.0936123378331296  0.11067241658405201  1.0000
  H   H37       1.0  0.03173213732844384  0.9857841711743417  0.9281352580925144  1.0000
  H   H38       1.0  0.9682678628837725  0.014215828917684381  0.07186474185010372  1.0000
  H   H39       1.0  0.2873245228177268  0.45388588938289065  0.957780828487614  1.0000
  H   H40       1.0  0.7126754773944894  0.5461141107091354  0.042219171455003944  1.0000
  H   H41       1.0  0.5625219198407441  0.4902779185815559  0.8624388378554542  1.0000
  H   H42       1.0  0.43747808037147223  0.5097220815104703  0.1375611620871637  1.0000
  H   H43       1.0  0.006597089614884083  0.2936719886329649  0.9586414200624931  1.0000
  H   H44       1.0  0.9934029104622863  0.7063280113368708  0.04135858036671692  1.0000
  H   H45       1.0  0.7087169066816603  0.2645245047637867  0.05016214880155801  1.0000
  H   H46       1.0  0.291283093530556  0.7354754953282393  0.9498378511410601  1.0000
  H   H47       1.0  0.134804203059525  0.3690844896418881  0.8534709935445622  1.0000
  H   H48       1.0  0.8651957971707549  0.6309155098011212  0.14652900638961816  1.0000
  H   H49       1.0  0.8146309523375106  0.5089771523515815  0.7866306861921132  1.0000
  H   H50       1.0  0.18536904787470557  0.49102284774044463  0.21336931375050497  1.0000
  H   H51       1.0  0.9254684231121728  0.5842467119679966  0.6836103322667476  1.0000
  H   H52       1.0  0.07453157710004339  0.41575328812402945  0.3163896676758705  1.0000
  H   H53       1.0  0.19956114318836574  0.6204958888579394  0.5880345346926523  1.0000
  H   H54       1.0  0.8004388570238503  0.3795041112340867  0.4119654652499657  1.0000
  H   H55       1.0  0.6610173019201716  0.4287918148714328  0.6792550405055705  1.0000
  H   H56       1.0  0.3389826982920445  0.5712081852205932  0.3207449594370476  1.0000
  H   H57       1.0  0.38833368516774497  0.3928574521192118  0.7753183753129735  1.0000
  H   H58       1.0  0.6116663150444713  0.6071425479728142  0.22468162462964453  1.0000
  H   H59       1.0  0.549330333247429  0.6724472614460262  0.5403761176953322  1.0000
  H   H60       1.0  0.45066966696478733  0.3275527386459999  0.4596238822472859  1.0000
  H   H61       1.0  0.4215510279170427  0.5919729081687389  0.500287396848275  1.0000
  H   H62       1.0  0.5784489706003304  0.4080270919170663  0.4997126030889001  1.0000
  H   H63       1.0  0.8086959387219751  0.5474506128314252  0.46196871266072376  1.0000
  H   H64       1.0  0.19130405979539794  0.45254938725438015  0.5380312872764512  1.0000
  H   H65       1.0  0.9337790368584153  0.6266802329868668  0.5014051097307056  1.0000
  H   H66       1.0  0.06622096335380089  0.3733197671051593  0.4985948902119124  1.0000
  H   H67       1.0  0.6110062796214119  0.6695948015179031  0.3911926100861018  1.0000
  H   H68       1.0  0.3889937205908043  0.33040519857412304  0.6088073898565163  1.0000
  H   H69       1.0  0.7431086571390353  0.7483512591108769  0.4297500657740757  1.0000
  H   H70       1.0  0.25689134307318096  0.2516487409811491  0.5702499341685424  1.0000
  H   H71       1.0  0.1262465447387  0.6961329993679091  0.39357695430363726  1.0000
  H   H72       1.0  0.8737534554735162  0.303867000724117  0.6064230456389809  1.0000
  H   H73       1.0  0.9937455466888431  0.6155575868511054  0.3569568588888721  1.0000
  H   H74       1.0  0.006254453523373237  0.38444241324092077  0.6430431410537459  1.0000
  H   H75       1.0  0.8146396992596024  0.7346525869064103  0.2805832663925835  1.0000
  H   H76       1.0  0.18536029925777078  0.265347413179395  0.7194167335445915  1.0000
  H   H77       1.0  0.9426364564398604  0.815733142022203  0.3174919485316458  1.0000
  H   H78       1.0  0.05736354194246677  0.18426685794141182  0.6825080518921212  1.0000
  H   H79       1.0  0.32945010843184624  0.7589068099056057  0.2869395603221487  1.0000
  H   H80       1.0  0.6705498917803699  0.24109319018642042  0.7130604396204694  1.0000
  H   H81       1.0  0.19856846681205528  0.6787866336763492  0.24969894759798453  1.0000
  H   H82       1.0  0.8014315317233816  0.3212133657604394  0.7503010523307526  1.0000
  H   H83       1.0  0.15651545949986756  0.8785414389585173  0.20702074958399047  1.0000
  H   H84       1.0  0.8434845407123487  0.12145856113350872  0.7929792503586276  1.0000
  H   H85       1.0  0.03166398122117466  0.796579834161136  0.17049116826080238  1.0000
  H   H86       1.0  0.9683360189910415  0.20342016593089016  0.8295088316818156  1.0000
  H   H87       1.0  0.5452790395934981  0.820142921688792  0.18020590763935068  1.0000
  H   H88       1.0  0.45472096061871814  0.17985707840323406  0.8197940923032675  1.0000
  H   H89       1.0  0.41796267786495706  0.7396418927643269  0.1426347238820878  1.0000
  H   H90       1.0  0.5820373223472592  0.2603581073276992  0.8573652760605303  1.0000
  H   H91       1.0  0.38098108308977097  0.9399112640264687  0.10035520557132677  1.0000
  H   H92       1.0  0.6190189169873994  0.06008873594336701  0.8996447948578833  1.0000
  H   H93       1.0  0.2516975733820378  0.8596404182619692  0.06315052676209434  1.0000
  H   H94       1.0  0.7483024268301784  0.14035958183005673  0.9368494731805238  1.0000
  H   H95       1.0  0.6183511256064715  0.9157582492756986  0.0007406446777024657  1.0000
  H   H96       1.0  0.3816488746238084  0.08424175016731077  0.9992593552564777  1.0000
  H   H97       1.0  0.636313861229105  0.801718787791505  0.032415922497216934  1.0000
  H   H98       1.0  0.36368613898311114  0.19828121230052106  0.9675840774454012  1.0000
  H   H99       1.0  0.7691003644431209  0.8810156520312232  0.07099388235429108  1.0000
  H   H100      1.0  0.23089963576909533  0.11898434806080285  0.929006117588327  1.0000
  C   C1        1.0  0.9384194795170695  0.28461879901950965  0.19152229472418555  1.0000
  C   C2        1.0  0.061580520695146676  0.7153812010725162  0.8084777052184325  1.0000
  C   C3        1.0  0.9620408251176011  0.21366443887306621  0.2416355568634321  1.0000
  C   C4        1.0  0.03795917509461496  0.7863355612189599  0.758364443079186  1.0000
  C   C5        1.0  0.8005754660175085  0.19332303186293856  0.29364791123657485  1.0000
  C   C6        1.0  0.19942453419470774  0.8066769682290875  0.7063520887060432  1.0000
  C   C7        1.0  0.6029220362965743  0.2432155185037754  0.3000304849405819  1.0000
  C   C8        1.0  0.3970779639337057  0.7567844809392341  0.6999695149935984  1.0000
  C   C9        1.0  0.5829022249217249  0.31457851852469954  0.2488319747455933  1.0000
  C   C10       1.0  0.41709777529049125  0.6854214815673266  0.7511680251970249  1.0000
  C   C11       1.0  0.7428567412179004  0.33434552425446457  0.19655666165593125  1.0000
  C   C12       1.0  0.25714325899431567  0.6656544758375614  0.8034433382866868  1.0000
  C   C13       1.0  0.4246601680280094  0.22749995187300656  0.3519474488938736  1.0000
  C   C14       1.0  0.5753398322022706  0.7725000475700029  0.6480525510403067  1.0000
  C   C15       1.0  0.41357302771581445  0.16462939884101793  0.4062392996898472  1.0000
  C   C16       1.0  0.5864269724964017  0.835370601251008  0.593760700252771  1.0000
  C   C17       1.0  0.22744800594768866  0.15224442011517714  0.4562883499416321  1.0000
  C   C18       1.0  0.7725519942645277  0.8477555799768489  0.543711650000986  1.0000
  C   C19       1.0  0.02713093078601696  0.2027239140280318  0.4529540498622646  1.0000
  C   C20       1.0  0.9728690694442629  0.7972760854149777  0.5470459500719156  1.0000
  C   C21       1.0  0.8549566686284075  0.1883019093064239  0.5019093625716157  1.0000
  C   C22       1.0  0.14504333158380883  0.811698090785602  0.49809063737100256  1.0000
  C   C23       1.0  0.8746843903181363  0.12173073970162761  0.5564350006073528  1.0000
  C   C24       1.0  0.12531560819923698  0.8782692603841775  0.44356499932982213  1.0000
  C   C25       1.0  0.07060359130146808  0.0702181362097538  0.5606975442714547  1.0000
  C   C26       1.0  0.9293964089107482  0.9297818638822722  0.4393024556711634  1.0000
  C   C27       1.0  0.24334482665267929  0.0863878881084659  0.5113069169838881  1.0000
  C   C28       1.0  0.756655173559537  0.9136121119835602  0.48869308295872993  1.0000
  C   C29       1.0  0.707624097350152  0.04517763991810702  0.6584201467011177  1.0000
  C   C30       1.0  0.2923759028620644  0.9548223601739189  0.3415798532415003  1.0000
  C   C31       1.0  0.4916965287786295  0.049705556857852794  0.7012537471280494  1.0000
  C   C32       1.0  0.5083034697387436  0.9502944432279523  0.2987462528091256  1.0000
  C   C33       1.0  0.4868882995775993  0.9814495345850925  0.7634990972562152  1.0000
  C   C34       1.0  0.5131117006346169  0.0185504655069335  0.23650090268640286  1.0000
  C   C35       1.0  0.270713111887525  0.9845732920264876  0.807400124311422  1.0000
  C   C36       1.0  0.7292868883427549  0.015426707416521917  0.19259987562275843  1.0000
  C   C37       1.0  0.2674540617735689  0.9167504902616536  0.8699742442567664  1.0000
  C   C38       1.0  0.7325459367438042  0.0832495098241516  0.1300257556804087  1.0000
  C   C39       1.0  0.051572750073446964  0.9202944179424501  0.9140122755874542  1.0000
  C   C40       1.0  0.9484272501387693  0.07970558214957595  0.08598772435516398  1.0000
  C   C41       1.0  0.4482428769982663  0.4190589628160976  0.955932376519647  1.0000
  C   C42       1.0  0.5517571232139499  0.5809410372759285  0.04406762342297105  1.0000
  C   C43       1.0  0.6033603808319865  0.4392640349029024  0.9025073434981289  1.0000
  C   C44       1.0  0.39663961938022974  0.5607359651891237  0.09749265644448919  1.0000
  C   C45       1.0  0.8114422675262886  0.39403767202112894  0.9012166797302351  1.0000
  C   C46       1.0  0.18855773268592774  0.6059623280708969  0.09878332021238295  1.0000
  C   C47       1.0  0.8482342594496713  0.33023130860067873  0.9561968999717125  1.0000
  C   C48       1.0  0.15176574076254482  0.6697686914913472  0.04380309997090551  1.0000
  C   C49       1.0  0.6826508619013855  0.31395628228093686  0.007448238135776738  1.0000
  C   C50       1.0  0.3173491366159876  0.6860437178048684  0.9925517618013981  1.0000
  C   C51       1.0  0.98316210820159  0.40964434608931694  0.8472532446098796  1.0000
  C   C52       1.0  0.016837892010626233  0.5903556540027093  0.1527467553327385  1.0000
  C   C53       1.0  0.9673095989334375  0.468908255903083  0.7918708833434205  1.0000
  C   C54       1.0  0.03269040127877887  0.5310917441889431  0.20812911659919758  1.0000
  C   C55       1.0  0.13443268382347465  0.4864763280442536  0.7369771228100577  1.0000
  C   C56       1.0  0.8655673162536955  0.513523671925582  0.2630228776191524  1.0000
  C   C57       1.0  0.08764318591639819  0.550324799074458  0.6829553289013464  1.0000
  C   C58       1.0  0.912356812465929  0.44967520088915686  0.3170446715224206  1.0000
  C   C59       1.0  0.2416209359272729  0.5709718083988968  0.6289418644059778  1.0000
  C   C60       1.0  0.7583790642849432  0.4290281916931293  0.37105813553664035  1.0000
  C   C61       1.0  0.4494627817965624  0.5269455709880688  0.628015560793678  1.0000
  C   C62       1.0  0.5505372184156537  0.4730544291039572  0.37198443914894  1.0000
  C   C63       1.0  0.498893266311401  0.4622943759452215  0.6812215907193552  1.0000
  C   C64       1.0  0.5011067339008152  0.5377056241468045  0.3187784092232629  1.0000
  C   C65       1.0  0.3449642696837394  0.44275105343837773  0.7345574526204695  1.0000
  C   C66       1.0  0.655035730528477  0.5572489466536484  0.2654425473221486  1.0000
  C   C67       1.0  0.5753242889219672  0.6087421352062853  0.5233438173613553  1.0000
  C   C68       1.0  0.42467571129024895  0.39125786488574066  0.4766561825812628  1.0000
  C   C69       1.0  0.7828482198276495  0.6126739678161034  0.4763292079559469  1.0000
  C   C70       1.0  0.21715178038456667  0.3873260322759227  0.5236707919866711  1.0000
  C   C71       1.0  0.7643288083143712  0.6825784626752116  0.41579777122043426  1.0000
  C   C72       1.0  0.2356711918978451  0.3174215374168145  0.5842022287221837  1.0000
  C   C73       1.0  0.9737209070457814  0.6825310618275332  0.3687823750332752  1.0000
  C   C74       1.0  0.02627909316643491  0.31746893826449274  0.6312176249093429  1.0000
  C   C75       1.0  0.9655673656940128  0.748677960639395  0.3059198791367905  1.0000
  C   C76       1.0  0.034432634518203394  0.2513220394526311  0.6940801208058276  1.0000
  C   C77       1.0  0.17923380357927857  0.7461401998828783  0.2608490765827829  1.0000
  C   C78       1.0  0.8207661966329377  0.2538598002091478  0.7391509233598352  1.0000
  C   C79       1.0  0.17995849936324695  0.8107558022800554  0.19691512489838564  1.0000
  C   C80       1.0  0.8200415008489692  0.18924419781197058  0.8030848750442324  1.0000
  C   C81       1.0  0.3971151686874342  0.8071909831925744  0.15337874042458005  1.0000
  C   C82       1.0  0.6028848298299391  0.19280901689323074  0.8466212595125948  1.0000
  C   C83       1.0  0.401124536308565  0.8723895222999367  0.08949573690221954  1.0000
  C   C84       1.0  0.5988754639036512  0.12761047779208928  0.9105042630403984  1.0000
  C   C85       1.0  0.6177267269741141  0.8675778134493022  0.04599667887185803  1.0000
  C   C86       1.0  0.38227327310305625  0.13242218652053356  0.9540033215573519  1.0000
  N   N1        1.0  0.48446895992149075  0.3569228273376938  0.00785248488508197  1.0000
  N   N2        1.0  0.5155310402907256  0.6430771727543323  0.9921475150575361  1.0000
  O   O1        1.0  0.6962889166947998  0.11268854873238485  0.6017736955460048  1.0000
  O   O2        1.0  0.30371108351741644  0.8873114513596412  0.3982263043966133  1.0000
  O   O3        1.0  0.6132576248284184  0.5413568893797318  0.5783167261670433  1.0000
  O   O4        1.0  0.3867423753837978  0.45864311071229436  0.42168327377557485  1.0000
  F   F1        1.0  0.14531263718908433  0.16054295475620028  0.2399324747662663  1.0000
  F   F2        1.0  0.854687363023132  0.8394570453358258  0.7600675251763518  1.0000
  F   F3        1.0  0.8365863460552746  0.12058669537790583  0.33879405243627286  1.0000
  F   F4        1.0  0.1634136540218956  0.8794133045919299  0.6612059479929372  1.0000
  F   F5        1.0  0.39842727929727717  0.36732240478105005  0.25080041541545073  1.0000
  F   F6        1.0  0.6015727209149391  0.632677595310976  0.7491995845271673  1.0000
  F   F7        1.0  0.7065222438991791  0.40425826161559003  0.14967016380458562  1.0000
  F   F8        1.0  0.293477756313037  0.595741738476436  0.8503298361380326  1.0000
  I   I1        1.0  0.1813406660382787  0.3159689091174096  0.11068436020118903  1.0000
  I   I2        1.0  0.8186593324790945  0.6840310909683954  0.889315639735986  1.0000
