data_image0
_chemical_formula_structural       H50C44N20O4
_chemical_formula_sum              "H50 C44 N20 O4"
_cell_length_a       4.695119060090854
_cell_length_b       11.814429531194296
_cell_length_c       19.775658493510385
_cell_angle_alpha    99.46025304631601
_cell_angle_beta     93.41745546417697
_cell_angle_gamma    95.60000776401449

_space_group_name_H-M_alt    "P 1"
_space_group_IT_number       1

loop_
  _space_group_symop_operation_xyz
  'x, y, z'

loop_
  _atom_site_type_symbol
  _atom_site_label
  _atom_site_symmetry_multiplicity
  _atom_site_fract_x
  _atom_site_fract_y
  _atom_site_fract_z
  _atom_site_occupancy
  H   H1        1.0  0.5764114331836035  0.8980284350450527  0.03456136847809427  1.0000
  H   H2        1.0  0.42358856715073806  0.10197156489105806  0.9654386314978629  1.0000
  H   H3        1.0  0.3141462401498528  0.8875499270670107  0.9667367077244557  1.0000
  H   H4        1.0  0.6858537582806272  0.11245007373074663  0.03326329231374251  1.0000
  H   H5        1.0  0.1844471729135994  0.6719534213591724  0.8051856568024474  1.0000
  H   H6        1.0  0.8155528274207422  0.3280465785769383  0.19481434317350976  1.0000
  H   H7        1.0  0.01434314184218845  0.7747495660876186  0.8589616140316041  1.0000
  H   H8        1.0  0.985656858492153  0.22525043384849197  0.1410383859443531  1.0000
  H   H9        1.0  0.530569519593791  0.21686645653624567  0.8329364079414503  1.0000
  H   H10       1.0  0.46943048074055077  0.7831335433998651  0.16706359203450674  1.0000
  H   H11       1.0  0.23255092104885217  0.16159410054269593  0.872621990075351  1.0000
  H   H12       1.0  0.7674490792854894  0.8384058993934147  0.1273780099006061  1.0000
  H   H13       1.0  0.7784179964987851  0.7123999887442203  0.6676698330931142  1.0000
  H   H14       1.0  0.22158200383555657  0.2876000111918904  0.3323301668828429  1.0000
  H   H15       1.0  0.9149565252027398  0.07834771248650572  0.6718651806741599  1.0000
  H   H16       1.0  0.08504347513160185  0.9216522874496049  0.32813481930179733  1.0000
  H   H17       1.0  0.09653960811640597  0.6803014332817636  0.5722437648563721  1.0000
  H   H18       1.0  0.9034603922179357  0.31969856665434704  0.427756235119585  1.0000
  H   H19       1.0  0.2318253480084085  0.046432171214758414  0.5755181665334896  1.0000
  H   H20       1.0  0.7681746523259332  0.9535678287213522  0.4244818334424675  1.0000
  H   H21       1.0  0.3974242706916731  0.7505771041812549  0.49158562414639917  1.0000
  H   H22       1.0  0.6025757298728761  0.24942289661808717  0.5084143759198309  1.0000
  H   H23       1.0  0.5930232929109789  0.8868503870322227  0.524411194045614  1.0000
  H   H24       1.0  0.4069767074233627  0.11314961290388792  0.4755888059303431  1.0000
  H   H25       1.0  0.29436073056922524  0.8776313040289577  0.46377204878461076  1.0000
  H   H26       1.0  0.705639270004119  0.12236869676655025  0.536227951787029  1.0000
  H   H27       1.0  0.081144769729761  0.9655241750325322  0.8581575626956347  1.0000
  H   H28       1.0  0.9188552284705114  0.034475824901993725  0.14184243725229068  1.0000
  H   H29       1.0  0.07662478239992665  0.23975193797147268  0.9924384457150164  1.0000
  H   H30       1.0  0.9233752179344151  0.760248061964638  0.007561554260940841  1.0000
  H   H31       1.0  0.829892401924189  0.17137754590092805  0.9258282122299185  1.0000
  H   H32       1.0  0.17010759864036026  0.828622454898414  0.07417178783631138  1.0000
  H   H33       1.0  0.5555840886597475  0.5922815683281095  0.9798924697535741  1.0000
  H   H34       1.0  0.44441591167459416  0.4077184316080012  0.02010753022238294  1.0000
  H   H35       1.0  0.4703872944006353  0.6690223168071731  0.9136233545054778  1.0000
  H   H36       1.0  0.5296127059337064  0.3309776831289376  0.08637664547047934  1.0000
  H   H37       1.0  0.6959703033433731  0.6127601895029108  0.7793045505328849  1.0000
  H   H38       1.0  0.30402969699096843  0.3872398104331998  0.22069544944307218  1.0000
  H   H39       1.0  0.6583584661468921  0.24185944908530066  0.731883551450033  1.0000
  H   H40       1.0  0.34164153418744947  0.7581405508508101  0.26811644852592414  1.0000
  H   H41       1.0  0.36960549674519977  0.6126975811264007  0.6776099065525529  1.0000
  H   H42       1.0  0.630394503589142  0.3873024188097099  0.32239009342340424  1.0000
  H   H43       1.0  0.3329494324947054  0.24161736414021848  0.628747740113195  1.0000
  H   H44       1.0  0.6670505678396363  0.7583826357958922  0.3712522598627621  1.0000
  H   H45       1.0  0.06625745805850769  0.33890071311000575  0.5547626173724738  1.0000
  H   H46       1.0  0.9337425401417647  0.6610992868245201  0.4452373825754516  1.0000
  H   H47       1.0  0.22318898074164897  0.4790422735075215  0.5477382636043238  1.0000
  H   H48       1.0  0.7768110195926927  0.5209577264285893  0.4522617363716333  1.0000
  H   H49       1.0  0.9276453806178172  0.46296423554381055  0.5985399323610594  1.0000
  H   H50       1.0  0.0723546197165244  0.5370357643923  0.40146006761489766  1.0000
  C   C1        1.0  0.7401172216196052  0.9114032854686437  0.9382145270460853  1.0000
  C   C2        1.0  0.2598827768196696  0.0885967153252794  0.061785473497522704  1.0000
  C   C3        1.0  0.5179921057888668  0.936581032715284  0.9895692741266803  1.0000
  C   C4        1.0  0.48200789454547494  0.06341896722082652  0.01043072584927695  1.0000
  C   C5        1.0  0.29831221202466535  0.8416270717364841  0.796416922134136  1.0000
  C   C6        1.0  0.7016877883096764  0.15837292819962648  0.20358307784182114  1.0000
  C   C7        1.0  0.4095941949963031  0.042624336333255936  0.8049962821803487  1.0000
  C   C8        1.0  0.5904058053380384  0.9573756636028546  0.19500371779560843  1.0000
  C   C9        1.0  0.6270585714473638  0.9161756138702036  0.7307897607774092  1.0000
  C   C10       1.0  0.37294142888697795  0.0838243860659071  0.2692102391985478  1.0000
  C   C11       1.0  0.8217111296244403  0.8971527530944529  0.675030327985829  1.0000
  C   C12       1.0  0.1782888685758321  0.10284724684007304  0.3249696719620965  1.0000
  C   C13       1.0  0.8759771230751151  0.7851960440703138  0.6466843262785519  1.0000
  C   C14       1.0  0.12402287512515744  0.2148039558642122  0.35331567366937355  1.0000
  C   C15       1.0  0.18425746982293073  0.8608070301133617  0.5660913004313595  1.0000
  C   C16       1.0  0.8157425283773417  0.13919296982116425  0.4339086995165659  1.0000
  C   C17       1.0  0.9537141639237711  0.9912895481445971  0.6489692337031872  1.0000
  C   C18       1.0  0.046285836410570595  0.008710451791513633  0.35103076627276997  1.0000
  C   C19       1.0  0.054975491469716205  0.7678639958473015  0.5931748980217462  1.0000
  C   C20       1.0  0.9450245088646254  0.2321360040888093  0.40682510195421095  1.0000
  C   C21       1.0  0.13062030023872634  0.972772611765719  0.5952007696763153  1.0000
  C   C22       1.0  0.8693797000956154  0.02722738817039176  0.40479923029964177  1.0000
  C   C23       1.0  0.3769729847902964  0.8423883343205778  0.5083204696232222  1.0000
  C   C24       1.0  0.6230270155440453  0.15761166561553286  0.49167953035273493  1.0000
  C   C25       1.0  0.0037551554528087176  0.3342469206413871  0.9145863240204787  1.0000
  C   C26       1.0  0.996244844881533  0.6657530792947236  0.08541367595547844  1.0000
  C   C27       1.0  0.8811725140966943  0.42698015880926093  0.8264884949345868  1.0000
  C   C28       1.0  0.1188274862376474  0.5730198411268498  0.1735115050413704  1.0000
  C   C29       1.0  0.2278490606123849  0.5124618385983049  0.9098179724872647  1.0000
  C   C30       1.0  0.7721509397219567  0.4875381613378058  0.09018202748869235  1.0000
  C   C31       1.0  0.6995323449895354  0.4274657175247603  0.7628412250160327  1.0000
  C   C32       1.0  0.30046765344094445  0.5725342832729969  0.23715877502216556  1.0000
  C   C33       1.0  0.6192222361495983  0.5312711547864689  0.7459131418074882  1.0000
  C   C34       1.0  0.38077776418474346  0.4687288451496417  0.25408685816846893  1.0000
  C   C35       1.0  0.5948929860561403  0.3231819624599114  0.719840740667257  1.0000
  C   C36       1.0  0.40510701427820134  0.6768180374761993  0.2801592593087001  1.0000
  C   C37       1.0  0.43416743829384863  0.5305861370726842  0.6881657102075094  1.0000
  C   C38       1.0  0.5658325620404929  0.4694138628634264  0.3118342897684478  1.0000
  C   C39       1.0  0.3274619945539412  0.42664018679702004  0.6450563639447627  1.0000
  C   C40       1.0  0.6725380036463313  0.5733598131375058  0.3549436360031626  1.0000
  C   C41       1.0  0.4125818375323795  0.32345150228555225  0.6616364678143749  1.0000
  C   C42       1.0  0.5874181628019622  0.6765484976505585  0.3383635321615821  1.0000
  C   C43       1.0  0.12572544651223824  0.4265547023901725  0.5831978556930065  1.0000
  C   C44       1.0  0.8742745538221034  0.5734452975459381  0.41680214428295065  1.0000
  N   N1        1.0  0.2426908504442148  0.9516219830195177  0.8219043722352622  1.0000
  N   N2        1.0  0.7573091477560575  0.048378016915008225  0.1780956277126631  1.0000
  N   N3        1.0  0.49128790967033925  0.8219474384270835  0.749656317291213  1.0000
  N   N4        1.0  0.5087120906640024  0.17805256150902707  0.25034368268474405  1.0000
  N   N5        1.0  0.6024119607117989  0.02654122099438796  0.75795042800687  1.0000
  N   N6        1.0  0.3975880374884734  0.973458778940138  0.2420495719410554  1.0000
  N   N7        1.0  0.15231310419244817  0.7564443095343006  0.8199697516393178  1.0000
  N   N8        1.0  0.8476868940078242  0.24355569040022518  0.1800302483086075  1.0000
  N   N9        1.0  0.3760933363874842  0.14862975310242968  0.8359472735393004  1.0000
  N   N10       1.0  0.6239066639468573  0.851370246833681  0.16405272643665675  1.0000
  N   N11       1.0  0.8370933918993078  0.3321878558303393  0.8558320607064224  1.0000
  N   N12       1.0  0.1629066084350339  0.6678121441057714  0.14416793926953472  1.0000
  N   N13       1.0  0.07076952973863064  0.5189650920711295  0.85055526187204  1.0000
  N   N14       1.0  0.929230470595711  0.48103490786498115  0.14944473810391704  1.0000
  N   N15       1.0  0.19936007590039206  0.42152202074411627  0.9435422260218164  1.0000
  N   N16       1.0  0.8006399244339496  0.5784779791919944  0.05645777395414066  1.0000
  N   N17       1.0  0.9813653615938126  0.23877431237920324  0.9441612194724789  1.0000
  N   N18       1.0  0.01863463874052917  0.7612256875569074  0.05583878050347827  1.0000
  N   N19       1.0  0.42509271654433156  0.5997149438290168  0.9369977599901259  1.0000
  N   N20       1.0  0.5749072840202176  0.4002850569703253  0.06300224007610412  1.0000
  O   O1        1.0  0.8492408038265477  0.9933052636150401  0.9101151451590791  1.0000
  O   O2        1.0  0.15075919650779396  0.006694736321070478  0.08988485481687798  1.0000
  O   O3        1.0  0.804111721638384  0.8078051391805524  0.9253116623288508  1.0000
  O   O4        1.0  0.1958882786959577  0.19219486075555822  0.07468833764710625  1.0000
