data_image0
_chemical_formula_structural       H68C52N12O8
_chemical_formula_sum              "H68 C52 N12 O8"
_cell_length_a       7.255055443446012
_cell_length_b       8.830713930803686
_cell_length_c       19.233169847383923
_cell_angle_alpha    92.02127555448585
_cell_angle_beta     89.86811529801311
_cell_angle_gamma    96.5790520347382

_space_group_name_H-M_alt    "P 1"
_space_group_IT_number       1

loop_
  _space_group_symop_operation_xyz
  'x, y, z'

loop_
  _atom_site_type_symbol
  _atom_site_label
  _atom_site_symmetry_multiplicity
  _atom_site_fract_x
  _atom_site_fract_y
  _atom_site_fract_z
  _atom_site_occupancy
  H   H1        1.0  0.9192526357515851  0.5572699025489187  0.2584054738716457  1.0000
  H   H2        1.0  0.08074736399785029  0.44273009751341086  0.7415945263448718  1.0000
  H   H3        1.0  0.2037343649194151  0.9883858473648418  0.3265646716070351  1.0000
  H   H4        1.0  0.7962656348300202  0.01161415269748767  0.6734353286094823  1.0000
  H   H5        1.0  0.15156439570316313  0.8158049924024249  0.27720067162230705  1.0000
  H   H6        1.0  0.8484356040462724  0.18419500765990457  0.7227993285942105  1.0000
  H   H7        1.0  0.1560588730248447  0.9192968237252124  0.4408617958751882  1.0000
  H   H8        1.0  0.8439411267245908  0.08070317633711706  0.5591382043413293  1.0000
  H   H9        1.0  0.950414751849751  0.8101125013861049  0.5347094674091661  1.0000
  H   H10       1.0  0.0495852478996845  0.1898874986762246  0.46529053280735133  1.0000
  H   H11       1.0  0.6348109470225132  0.6823040421318577  0.5056547587245167  1.0000
  H   H12       1.0  0.3651890527269223  0.3176959579304717  0.49434524149200065  1.0000
  H   H13       1.0  0.729297296635958  0.7784771876543054  0.2897655769287851  1.0000
  H   H14       1.0  0.2707027031134775  0.22152281240802404  0.7102344232877325  1.0000
  H   H15       1.0  0.4078900371923891  0.5921211164833591  0.42441456113184367  1.0000
  H   H16       1.0  0.5921099625570463  0.4078788835789704  0.5755854390846739  1.0000
  H   H17       1.0  0.3763051143769771  0.7527277883087635  0.37545581612690615  1.0000
  H   H18       1.0  0.6236948867515277  0.24727221174574762  0.6245441835690466  1.0000
  H   H19       1.0  0.5585485138047745  0.006051569915817113  0.2966057541270919  1.0000
  H   H20       1.0  0.44145148732228806  0.9939484301414137  0.7033942460888393  1.0000
  H   H21       1.0  0.926339242134959  0.38016130134293474  0.08487331311038664  1.0000
  H   H22       1.0  0.07366075761447656  0.6198386987193947  0.9151266871061309  1.0000
  H   H23       1.0  0.8597485113630247  0.5414542723351841  0.13356607846229535  1.0000
  H   H24       1.0  0.1402514883878529  0.45854572772442587  0.8664339212342436  1.0000
  H   H25       1.0  0.6978416369708905  0.3767818752143656  0.11799656358201036  1.0000
  H   H26       1.0  0.3021583641561721  0.623218124842865  0.8820034366339207  1.0000
  H   H27       1.0  0.14174422534981507  0.4103134235678339  0.41031425802968435  1.0000
  H   H28       1.0  0.8582557743996203  0.5896865764944956  0.5896857421868331  1.0000
  H   H29       1.0  0.8996619709150616  0.4237929233150737  0.41639634011622695  1.0000
  H   H30       1.0  0.1003380288343738  0.5762070767472558  0.5836036601002905  1.0000
  H   H31       1.0  0.044903537734219526  0.5715466965802055  0.3775746916023293  1.0000
  H   H32       1.0  0.9550964633942853  0.42845330347430577  0.6224253080936234  1.0000
  H   H33       1.0  0.3063387378652511  0.15480539754106565  0.1505049152758275  1.0000
  H   H34       1.0  0.6936612618841843  0.8451946025212639  0.8494950849406901  1.0000
  H   H35       1.0  0.3990423224168108  0.9910767190591145  0.18229736353650794  1.0000
  H   H36       1.0  0.6009576773340666  0.008923281000495465  0.817702636160031  1.0000
  H   H37       1.0  0.545733993153145  0.13510707968589564  0.1405880115179608  1.0000
  H   H38       1.0  0.45426600797391775  0.8648929203713349  0.8594119886979705  1.0000
  H   H39       1.0  0.6702684414147867  0.22763630099437268  0.4672073175053823  1.0000
  H   H40       1.0  0.32973155833464873  0.7723636990679568  0.5327926827111352  1.0000
  H   H41       1.0  0.7489431832211939  0.07705020794664692  0.41390463202550004  1.0000
  H   H42       1.0  0.2510568165282415  0.9229497921156824  0.5860953681910174  1.0000
  H   H43       1.0  0.5208361525320002  0.05709817692053322  0.4480837608113516  1.0000
  H   H44       1.0  0.4791638472174352  0.9429018231417963  0.5519162394051659  1.0000
  H   H45       1.0  0.9755436372866928  0.9307823423695051  0.20053929268613488  1.0000
  H   H46       1.0  0.024456362464184665  0.06921765769010488  0.7994607070104041  1.0000
  H   H47       1.0  0.39944493486456367  0.6149418352609678  0.27123692453403164  1.0000
  H   H48       1.0  0.6005550647197513  0.38505816366074996  0.7287630756653944  1.0000
  H   H49       1.0  0.3691647317883101  0.4205985598299693  0.18749261115006025  1.0000
  H   H50       1.0  0.6308352679611253  0.5794014402323602  0.8125073890664571  1.0000
  H   H51       1.0  0.8844462914700655  0.10897514190690845  0.12729510702864222  1.0000
  H   H52       1.0  0.11555370827937007  0.891024858155421  0.8727048931878754  1.0000
  H   H53       1.0  0.14344109757837972  0.7300785905957575  0.07874241409749252  1.0000
  H   H54       1.0  0.856558903548683  0.26992140946147314  0.9212575861184386  1.0000
  H   H55       1.0  0.23613239737954786  0.5772731206748336  0.03247776928889132  1.0000
  H   H56       1.0  0.7638676023698875  0.4227268793874958  0.9675222309276261  1.0000
  H   H57       1.0  0.37737648058447126  0.8461663466974266  0.0003746941073765429  1.0000
  H   H58       1.0  0.6226235191649642  0.15383365336490293  0.9996253061091409  1.0000
  H   H59       1.0  0.46524942118258905  0.8716725090392221  0.08610813870471874  1.0000
  H   H60       1.0  0.5347505799459156  0.12832749101528906  0.9138918609912339  1.0000
  H   H61       1.0  0.5672725961696614  0.6371812512914844  0.9749017114953059  1.0000
  H   H62       1.0  0.43272740341609556  0.3628187476275138  0.025098288184141872  1.0000
  H   H63       1.0  0.6358485153680934  0.6340121726436615  0.06300393476961126  1.0000
  H   H64       1.0  0.36415148575896933  0.3659878274135692  0.9369960654463199  1.0000
  H   H65       1.0  0.8798565246179484  0.7660133995889498  0.9851414034319089  1.0000
  H   H66       1.0  0.120143475131487  0.23398660047337963  0.014858596784608626  1.0000
  H   H67       1.0  0.7332625656147024  0.9096384137577974  0.9713621938147817  1.0000
  H   H68       1.0  0.2667374341361752  0.09036158630181267  0.028637805881757367  1.0000
  C   C1        1.0  0.9921292323354506  0.3641081326698045  0.3150500892806649  1.0000
  C   C2        1.0  0.007870767415426815  0.6358918673898053  0.684949910415874  1.0000
  C   C3        1.0  0.9368530957655751  0.4366338613095426  0.2562107840574881  1.0000
  C   C4        1.0  0.06314690536292976  0.5633661387449687  0.7437892156384647  1.0000
  C   C5        1.0  0.9047698512219862  0.3497967257894266  0.19470801334196233  1.0000
  C   C6        1.0  0.09523014852889136  0.6502032742701833  0.8052919863545767  1.0000
  C   C7        1.0  0.9833234483732449  0.13834090524966433  0.25175421645065776  1.0000
  C   C8        1.0  0.016676552755259793  0.8616590948048468  0.7482457832452949  1.0000
  C   C9        1.0  0.0896140095149743  0.9118144398477026  0.302479404332599  1.0000
  C   C10       1.0  0.9103859902344611  0.08818556021462688  0.6975205958839185  1.0000
  C   C11       1.0  0.9575201633617856  0.8533062563541742  0.35905711416270997  1.0000
  C   C12       1.0  0.04247983638909201  0.14669374370543564  0.6409428855338289  1.0000
  C   C13       1.0  0.01810505456785529  0.862304077926646  0.42823354489721865  1.0000
  C   C14       1.0  0.9818949451815802  0.13769592213568355  0.5717664553192987  1.0000
  C   C15       1.0  0.9026341252555297  0.8016948216582408  0.4809013351488628  1.0000
  C   C16       1.0  0.0973658744953479  0.19830517840136921  0.5190986645476762  1.0000
  C   C17       1.0  0.724907977070733  0.7317753005038913  0.464759733935994  1.0000
  C   C18       1.0  0.27509202267870253  0.26822469955843836  0.5352402662805233  1.0000
  C   C19       1.0  0.660694247585608  0.7245407830877008  0.39603601193980115  1.0000
  C   C20       1.0  0.3393057521638274  0.27545921697462866  0.6039639882767164  1.0000
  C   C21       1.0  0.7780616956860946  0.7848381283155876  0.3436177655713439  1.0000
  C   C22       1.0  0.22193830406334095  0.21516187174674184  0.6563822346451736  1.0000
  C   C23       1.0  0.4625326338922262  0.6587173546846194  0.3801685907914861  1.0000
  C   C24       1.0  0.5374673658586513  0.34128264537499037  0.6198314089050528  1.0000
  C   C25       1.0  0.4693866478344422  0.4189156993867361  0.31240809935320357  1.0000
  C   C26       1.0  0.5306133519149931  0.5810843006755934  0.6875919008633139  1.0000
  C   C27       1.0  0.5613006219899983  0.20936010139962208  0.3637676949337874  1.0000
  C   C28       1.0  0.43869937776087914  0.7906398986599877  0.6362323047627517  1.0000
  C   C29       1.0  0.5313249455374883  0.12453670083511437  0.3010768315988254  1.0000
  C   C30       1.0  0.46867505558957445  0.8754632992221163  0.6989231686171057  1.0000
  C   C31       1.0  0.46603006782609346  0.19646638380916895  0.24427876888973316  1.0000
  C   C32       1.0  0.533969931923342  0.8035336162531606  0.7557212313267844  1.0000
  C   C33       1.0  0.8444631897500252  0.41658452900807885  0.12919708465076168  1.0000
  C   C34       1.0  0.1555368099994102  0.5834154710542507  0.8708029155657558  1.0000
  C   C35       1.0  0.023033374122953098  0.44814886129693665  0.38352395004944295  1.0000
  C   C36       1.0  0.9769666256264823  0.5518511387653927  0.6164760501670745  1.0000
  C   C37       1.0  0.4261211571362344  0.11437371038527462  0.1756480308451426  1.0000
  C   C38       1.0  0.5738788439922704  0.8856262896692366  0.8243519688508102  1.0000
  C   C39       1.0  0.6302919222469178  0.13931052146495296  0.42697015965174484  1.0000
  C   C40       1.0  0.3697080788801451  0.8606894785922777  0.5730298405641864  1.0000
  C   C41       1.0  0.3169909050626368  0.6105001322179843  0.1393859969722499  1.0000
  C   C42       1.0  0.6830090960658681  0.3894998678365269  0.8606140027237029  1.0000
  C   C43       1.0  0.2685453102357992  0.6722866499438526  0.07041792364343012  1.0000
  C   C44       1.0  0.7314546895136361  0.3277133501184768  0.9295820765730873  1.0000
  C   C45       1.0  0.4276871005755303  0.7856858866762002  0.044254508925119174  1.0000
  C   C46       1.0  0.5723128991739052  0.21431411338612935  0.9557454912913985  1.0000
  C   C47       1.0  0.5982594051262962  0.7091756075763201  0.02214152422106539  1.0000
  C   C48       1.0  0.4017405946231394  0.29082439248600916  0.9778584759954522  1.0000
  C   C49       1.0  0.7673697261305994  0.8248618708357184  0.008116532966265804  1.0000
  C   C50       1.0  0.23263027361883598  0.17513812922661104  0.9918834672502516  1.0000
  C   C51       1.0  0.8403248034815903  0.9051029706189246  0.0748406452163601  1.0000
  C   C52       1.0  0.15967519610416667  0.09489702830007353  0.9251593544630875  1.0000
  N   N1        1.0  0.016338955024213175  0.21566112987628425  0.31300989813853675  1.0000
  N   N2        1.0  0.9836610447266644  0.7843388701833257  0.6869901015580023  1.0000
  N   N3        1.0  0.9274302954852319  0.20041852522295187  0.19245415742721728  1.0000
  N   N4        1.0  0.07256970426420364  0.7995814748393775  0.8075458427893002  1.0000
  N   N5        1.0  0.008606765047468799  0.9893788045913378  0.24716157932788302  1.0000
  N   N6        1.0  0.9913932347019667  0.010621195470991633  0.7528384208886344  1.0000
  N   N7        1.0  0.43677714138740514  0.5662858269309272  0.31654721047708656  1.0000
  N   N8        1.0  0.5632228583620302  0.43371417313140226  0.6834527897394309  1.0000
  N   N9        1.0  0.5289015240326643  0.3556185569802362  0.3699455508832218  1.0000
  N   N10       1.0  0.4710984770943984  0.6443814430769945  0.6300544493327095  1.0000
  N   N11       1.0  0.4367581338291627  0.344139405374529  0.2497388033751729  1.0000
  N   N12       1.0  0.5632418659202727  0.6558605946878006  0.7502611968413445  1.0000
  O   O1        1.0  0.3254551677276488  0.4618675493811887  0.13845675401717333  1.0000
  O   O2        1.0  0.6745448333994138  0.538132450676042  0.8615432461987577  1.0000
  O   O3        1.0  0.3479534177297324  0.6960021542933903  0.1919768710739867  1.0000
  O   O4        1.0  0.6520465820211451  0.3039978457662196  0.8080231286225522  1.0000
  O   O5        1.0  0.8931890005125354  0.8318860977153228  0.12374839483704889  1.0000
  O   O6        1.0  0.10681099907322174  0.16811390120367545  0.876251604842399  1.0000
  O   O7        1.0  0.8411372945334622  0.054606872739921056  0.07689205339619984  1.0000
  O   O8        1.0  0.1588627052174153  0.9453931273196888  0.9231079463003391  1.0000
