data_image0
_chemical_formula_structural       H46C50N4O12
_chemical_formula_sum              "H46 C50 N4 O12"
_cell_length_a       8.371924575353106
_cell_length_b       10.670283108124774
_cell_length_c       12.321320520951907
_cell_angle_alpha    94.45207529626043
_cell_angle_beta     95.90766774051784
_cell_angle_gamma    100.65743842778005

_space_group_name_H-M_alt    "P 1"
_space_group_IT_number       1

loop_
  _space_group_symop_operation_xyz
  'x, y, z'

loop_
  _atom_site_type_symbol
  _atom_site_label
  _atom_site_symmetry_multiplicity
  _atom_site_fract_x
  _atom_site_fract_y
  _atom_site_fract_z
  _atom_site_occupancy
  H   H1        1.0  0.8207894543708322  0.7489330786170475  0.361328484441075  1.0000
  H   H2        1.0  0.1792105450116771  0.25106692222390076  0.6386715162733132  1.0000
  H   H3        1.0  0.9109757003782611  0.5438764795484374  0.397735162638891  1.0000
  H   H4        1.0  0.08902429997389616  0.45612352034961823  0.6022648372575474  1.0000
  H   H5        1.0  0.20224318645852887  0.5463245629615117  0.4636093080917852  1.0000
  H   H6        1.0  0.7977568138936284  0.4536754369365441  0.5363906918046533  1.0000
  H   H7        1.0  0.5198189905424672  0.8480577768009199  0.5288103852932411  1.0000
  H   H8        1.0  0.4801810098096901  0.15194222309713584  0.4711896146031973  1.0000
  H   H9        1.0  0.019016787008632945  0.9540710782539498  0.39782299865186893  1.0000
  H   H10       1.0  0.9809832121396777  0.045928921631335926  0.602177001168048  1.0000
  H   H11       1.0  0.3094187634360627  0.9566975067876775  0.4672929155386281  1.0000
  H   H12       1.0  0.6905812369160945  0.04330249311037812  0.5327070843578104  1.0000
  H   H13       1.0  0.4839104277653182  0.5869591350447341  0.5603236292374505  1.0000
  H   H14       1.0  0.5160895713829922  0.4130408648405514  0.4396763705824664  1.0000
  H   H15       1.0  0.5042000197193004  0.901838772805129  0.311429502057379  1.0000
  H   H16       1.0  0.4957999794290101  0.09816122708015664  0.6885704977625378  1.0000
  H   H17       1.0  0.8220977852230991  0.9350712074572142  0.11412468531002076  1.0000
  H   H18       1.0  0.17790221514107873  0.06492879243826419  0.8858753153986384  1.0000
  H   H19       1.0  0.11068354146696245  0.9643840552756102  0.06901926168817347  1.0000
  H   H20       1.0  0.8893164588851948  0.035615944622445404  0.930980738208265  1.0000
  H   H21       1.0  0.456395397648485  0.20909562666844916  0.2264111288540237  1.0000
  H   H22       1.0  0.5436046029258504  0.7909043741878465  0.7735888711246653  1.0000
  H   H23       1.0  0.9777400016812817  0.23443342901868203  0.3839354853290426  1.0000
  H   H24       1.0  0.02225999868289622  0.7655665708767962  0.6160645153796166  1.0000
  H   H25       1.0  0.26707515815802113  0.2566714374461309  0.33965852277832875  1.0000
  H   H26       1.0  0.7329248421941361  0.7433285624519247  0.6603414771181096  1.0000
  H   H27       1.0  0.44310059811660796  0.08842259650655887  0.025630590214921596  1.0000
  H   H28       1.0  0.5568994024577276  0.9115774043497367  0.9743694097637675  1.0000
  H   H29       1.0  0.21504234723719656  0.4538816116093778  0.24877020339146372  1.0000
  H   H30       1.0  0.7849576531149608  0.5461183882886779  0.7512297965049748  1.0000
  H   H31       1.0  0.12836161146513944  0.6633176645474392  0.23271966870428548  1.0000
  H   H32       1.0  0.871638387683171  0.3366823353378464  0.7672803311156313  1.0000
  H   H33       1.0  0.1271945825135184  0.7589670691766098  0.05574519994589797  1.0000
  H   H34       1.0  0.872805417838639  0.2410329307214459  0.9442547999505404  1.0000
  H   H35       1.0  0.18206158352116722  0.7528977995390524  0.8611660671274612  1.0000
  H   H36       1.0  0.8179384156271432  0.24710220034623312  0.13883393269245564  1.0000
  H   H37       1.0  0.28866977712389097  0.639071042015155  0.7056085313807056  1.0000
  H   H38       1.0  0.7113302220244193  0.3609289578701306  0.2943914684392113  1.0000
  H   H39       1.0  0.3023379011082018  0.3413070616778776  0.09000062371856524  1.0000
  H   H40       1.0  0.697662099255976  0.6586929382176007  0.9099993769900938  1.0000
  H   H41       1.0  0.3750402948693462  0.44973957612714205  0.7263152043709321  1.0000
  H   H42       1.0  0.6249597054828111  0.5502604237709136  0.27368479552550634  1.0000
  H   H43       1.0  0.4118752211370539  0.27628555586464143  0.8169333859576664  1.0000
  H   H44       1.0  0.5881247792151033  0.7237144440334141  0.18306661393877202  1.0000
  H   H45       1.0  0.3797042234266864  0.26797566374183235  0.9558534506371903  1.0000
  H   H46       1.0  0.6202957757336446  0.732024336140876  0.04414654999494734  1.0000
  C   C1        1.0  0.9470846039554408  0.7489573091899022  0.3921925938523879  1.0000
  C   C2        1.0  0.052915395192869516  0.25104269069538326  0.6078074059675289  1.0000
  C   C3        1.0  0.9979207348647576  0.6345198233768272  0.4126227944622977  1.0000
  C   C4        1.0  0.002079265487399753  0.3654801765212285  0.5873772054341407  1.0000
  C   C5        1.0  0.1612652235431061  0.6357392695038219  0.44992584423000237  1.0000
  C   C6        1.0  0.8387347768090512  0.36426073039423373  0.5500741556664361  1.0000
  C   C7        1.0  0.27479498007079317  0.7516345240109057  0.4684058517851173  1.0000
  C   C8        1.0  0.7252050202813641  0.24836547588715  0.5315941481113212  1.0000
  C   C9        1.0  0.45388826719961106  0.7497706462804065  0.5014929336807656  1.0000
  C   C10       1.0  0.5461117331525462  0.25022935361764925  0.49850706621567287  1.0000
  C   C11       1.0  0.5240371711065801  0.7009650954018504  0.39926991032366627  1.0000
  C   C12       1.0  0.4759628292455772  0.2990349044962053  0.6007300895727722  1.0000
  C   C13       1.0  0.0591866250924673  0.8647767212817709  0.41222839997653143  1.0000
  C   C14       1.0  0.94081337525969  0.13522327861628478  0.5877715999199069  1.0000
  C   C15       1.0  0.2221069419555655  0.8661532201301926  0.45111739594829575  1.0000
  C   C16       1.0  0.7778930583965918  0.13384677976786302  0.5488826039481427  1.0000
  C   C17       1.0  0.8916719974996662  0.08364898207396523  0.2505945910515143  1.0000
  C   C18       1.0  0.10832800285249101  0.9163510178240903  0.749405408844924  1.0000
  C   C19       1.0  0.918968136711133  0.00527661082213211  0.16350233425122315  1.0000
  C   C20       1.0  0.0810318624371774  0.9947233890631534  0.8364976655686938  1.0000
  C   C21       1.0  0.0816698761465044  0.02120004329576861  0.13919256565876648  1.0000
  C   C22       1.0  0.918330123001806  0.9787999565895168  0.8608074341611502  1.0000
  C   C23       1.0  0.2057193653561801  0.11125699761259898  0.20241334813045433  1.0000
  C   C24       1.0  0.7942806349959772  0.8887430022854567  0.7975866517659842  1.0000
  C   C25       1.0  0.3797380670191339  0.12753478366269008  0.17325948497871924  1.0000
  C   C26       1.0  0.6202619321411971  0.872465216220018  0.8267405156534182  1.0000
  C   C27       1.0  0.452338532848323  0.009370891971876738  0.1955151555250139  1.0000
  C   C28       1.0  0.5476614675038343  0.9906291079261788  0.8044848443714245  1.0000
  C   C29       1.0  0.006516635472131895  0.17411700866196814  0.3158648016918323  1.0000
  C   C30       1.0  0.9934833648800253  0.8258829912360875  0.6841351982046061  1.0000
  C   C31       1.0  0.16892294430271815  0.18698482233116298  0.29059252046107  1.0000
  C   C32       1.0  0.8310770560494392  0.8130151775668927  0.7094074794353684  1.0000
  C   C33       1.0  0.21616794349457988  0.4961241414486926  0.17113113111275827  1.0000
  C   C34       1.0  0.7838320570797556  0.5038758594076028  0.8288688688659308  1.0000
  C   C35       1.0  0.16690878772924495  0.6144852089627225  0.1620432511027675  1.0000
  C   C36       1.0  0.8330912114190655  0.38551479092256297  0.8379567487171492  1.0000
  C   C37       1.0  0.16632747489476235  0.6679873154578932  0.06360575935720655  1.0000
  C   C38       1.0  0.8336725254573949  0.33201268444016235  0.9363942405392319  1.0000
  C   C39       1.0  0.21781772316556347  0.6067545711493126  0.9714826426770442  1.0000
  C   C40       1.0  0.782182275982747  0.39324542873597274  0.02851735714287255  1.0000
  C   C41       1.0  0.22123720905778832  0.6622820377311651  0.8700927439047387  1.0000
  C   C42       1.0  0.7787627900905221  0.3377179621541205  0.12990725591517807  1.0000
  C   C43       1.0  0.2763058626764682  0.6018693703378352  0.7847329633395795  1.0000
  C   C44       1.0  0.723694137675689  0.39813062956022044  0.21526703655685894  1.0000
  C   C45       1.0  0.2655721618696756  0.43302843575746025  0.08192903502797522  1.0000
  C   C46       1.0  0.7344278372786348  0.5669715641278252  0.9180709647919416  1.0000
  C   C47       1.0  0.2687438897747051  0.4874138788688642  0.9812214106582431  1.0000
  C   C48       1.0  0.7312561093736054  0.5125861210164214  0.018778589161673815  1.0000
  C   C49       1.0  0.3246115453562662  0.4267624238011459  0.8870792455747615  1.0000
  C   C50       1.0  0.6753884549958911  0.5732375760969097  0.11292075432167699  1.0000
  N   N1        1.0  0.32765353314860257  0.4878543182538628  0.7946765772597786  1.0000
  N   N2        1.0  0.6723464672035547  0.5121456816441927  0.20532342263665987  1.0000
  N   N3        1.0  0.37424028482124866  0.31528591067556977  0.8868175405219165  1.0000
  N   N4        1.0  0.6257597155309087  0.684714089222486  0.113182459374522  1.0000
  O   O1        1.0  0.5517106961976554  0.5882078504633083  0.3944235117704997  1.0000
  O   O2        1.0  0.448289302950655  0.4117921494219773  0.6055764880494171  1.0000
  O   O3        1.0  0.5483507369967611  0.7751045581857644  0.32361901376645447  1.0000
  O   O4        1.0  0.45164926336741673  0.2248954417097139  0.6763809869422046  1.0000
  O   O5        1.0  0.47628892573813625  0.6739492163508704  0.5896722080280733  1.0000
  O   O6        1.0  0.523711074614021  0.32605078354718536  0.41032779186836527  1.0000
  O   O7        1.0  0.46724674346617884  0.9890537731156227  0.2996075641532806  1.0000
  O   O8        1.0  0.5327532568859785  0.010946226782432877  0.7003924357431579  1.0000
  O   O9        1.0  0.4901058921294506  0.9416805009937664  0.12008280469674112  1.0000
  O   O10       1.0  0.5098941082227066  0.058319498904289155  0.8799171951996975  1.0000
  O   O11       1.0  0.3837627402507773  0.14909802024879729  0.06081986827573955  1.0000
  O   O12       1.0  0.61623726010138  0.8509019796492584  0.9391801316206989  1.0000
