data_image0
_chemical_formula_structural       H20C26N4S2I2
_chemical_formula_sum              "H20 C26 N4 S2 I2"
_cell_length_a       7.003623346887755
_cell_length_b       8.637064963145871
_cell_length_c       11.022279770430636
_cell_angle_alpha    100.74655910619103
_cell_angle_beta     100.98095091573795
_cell_angle_gamma    103.85973683772704

_space_group_name_H-M_alt    "P 1"
_space_group_IT_number       1

loop_
  _space_group_symop_operation_xyz
  'x, y, z'

loop_
  _atom_site_type_symbol
  _atom_site_label
  _atom_site_symmetry_multiplicity
  _atom_site_fract_x
  _atom_site_fract_y
  _atom_site_fract_z
  _atom_site_occupancy
  H   H1        1.0  0.45945499229925435  0.049817679441273  0.782986902965846  1.0000
  H   H2        1.0  0.540545007886497  0.9501823212601023  0.21701309652388726  1.0000
  H   H3        1.0  0.15977340816525484  0.911873069372653  0.8494297416217523  1.0000
  H   H4        1.0  0.8402265916669458  0.0881269301368428  0.15057025787000933  1.0000
  H   H5        1.0  0.18468088126423576  0.5551584362692361  0.6246704294624388  1.0000
  H   H6        1.0  0.815319119289586  0.44484156473408903  0.37532957098013925  1.0000
  H   H7        1.0  0.898088139951711  0.42759969870300407  0.7095627024105259  1.0000
  H   H8        1.0  0.10191185988048972  0.5724003008064917  0.29043729708123567  1.0000
  H   H9        1.0  0.6339337975067809  0.8077823277662108  0.6710130613041658  1.0000
  H   H10       1.0  0.36606620269349033  0.1922176720452347  0.3289869391404405  1.0000
  H   H11       1.0  0.9081180459789009  0.9489213165536646  0.5854389644112487  1.0000
  H   H12       1.0  0.09188195385329974  0.05107868295583116  0.4145610350805129  1.0000
  H   H13       1.0  0.5298942796545282  0.3015112248148699  0.6017736554248663  1.0000
  H   H14       1.0  0.47010572054574307  0.6984887749965757  0.39822634501974  1.0000
  H   H15       1.0  0.23081729791902972  0.1701051895229537  0.6779145587018156  1.0000
  H   H16       1.0  0.7691827022812414  0.8298948102884918  0.32208544174279075  1.0000
  H   H17       1.0  0.3151910303706064  0.5950105466708894  0.955107270206318  1.0000
  H   H18       1.0  0.6848089698296649  0.40498945314055623  0.04489273023828846  1.0000
  H   H19       1.0  0.61424747907601  0.745897269916483  0.8876533524558811  1.0000
  H   H20       1.0  0.3857525211097413  0.25410273078489237  0.11234664703385222  1.0000
  C   C1        1.0  0.6695361502983228  0.08056201281566555  0.963201606333858  1.0000
  C   C2        1.0  0.3304638495338778  0.9194379866938303  0.036798393157903515  1.0000
  C   C3        1.0  0.4780087598290613  0.03007201528500527  0.878650888093618  1.0000
  C   C4        1.0  0.5219912400031396  0.9699279842244908  0.12134911139814365  1.0000
  C   C5        1.0  0.3083095914834886  0.9497678817560766  0.915545344704674  1.0000
  C   C6        1.0  0.6916904087167826  0.050232118055368875  0.0844546557399324  1.0000
  C   C7        1.0  0.0789026880064103  0.7666876155543374  0.5966013297867775  1.0000
  C   C8        1.0  0.9210973118257906  0.23331238395515846  0.4033986697049841  1.0000
  C   C9        1.0  0.06651901308750388  0.6151489131495198  0.6335749454826312  1.0000
  C   C10       1.0  0.9334809871127673  0.38485108666192575  0.36642505496197525  1.0000
  C   C11       1.0  0.9096561004758039  0.5423591392710121  0.6803265794435865  1.0000
  C   C12       1.0  0.09034389972446721  0.4576408605404334  0.3196734210010198  1.0000
  C   C13       1.0  0.7631867362221763  0.7605848441777002  0.6621097209743999  1.0000
  C   C14       1.0  0.23681326433164554  0.23941515682562495  0.3378902794681781  1.0000
  C   C15       1.0  0.9165932797647285  0.8356709920207697  0.6136911736165889  1.0000
  C   C16       1.0  0.08340671900645652  0.1643290077909628  0.3863088268234935  1.0000
  C   C17       1.0  0.59098061630536  0.5335930593877936  0.7392414420382718  1.0000
  C   C18       1.0  0.4090193838803914  0.46640694131358196  0.2607585574514615  1.0000
  C   C19       1.0  0.4854976493132362  0.3696222916450649  0.6804014747035185  1.0000
  C   C20       1.0  0.514502350887035  0.6303777081663807  0.3195985257410878  1.0000
  C   C21       1.0  0.3198418126910574  0.29724372276572275  0.7238617248629644  1.0000
  C   C22       1.0  0.6801581875092139  0.7027562770457227  0.27613827558164195  1.0000
  C   C23       1.0  0.36614797803382043  0.5338985565915413  0.8766328147171701  1.0000
  C   C24       1.0  0.6338520217983803  0.4661014429179545  0.12336718477459134  1.0000
  C   C25       1.0  0.5318564933817569  0.6187358139757416  0.8391132222973455  1.0000
  C   C26       1.0  0.4681435053749083  0.38126418672592066  0.16088677718786376  1.0000
  N   N1        1.0  0.2610875761654492  0.3767393053467226  0.8204192287834793  1.0000
  N   N2        1.0  0.7389124226057359  0.6232606944650099  0.17958077165660327  1.0000
  N   N3        1.0  0.7581430494968553  0.6142817936813314  0.6950302676823529  1.0000
  N   N4        1.0  0.2418569510569666  0.3857182073219938  0.30496973276022527  1.0000
  S   S1        1.0  0.27088523528374564  0.857363187938113  0.537358332970232  1.0000
  S   S2        1.0  0.7291147652700762  0.14263681306521223  0.46264166747234603  1.0000
  I   I1        1.0  0.9245146944795255  0.2072244838277511  0.9077414536941392  1.0000
  I   I2        1.0  0.07548530570622584  0.7927755168736242  0.09225854579559406  1.0000
