data_image0
_chemical_formula_structural       H36C78N8F24S4Cl4I12
_chemical_formula_sum              "H36 C78 N8 F24 S4 Cl4 I12"
_cell_length_a       11.121399533194435
_cell_length_b       15.79241440194151
_cell_length_c       16.111014887050302
_cell_angle_alpha    64.02379011959748
_cell_angle_beta     76.62327399928512
_cell_angle_gamma    71.35187840235092

_space_group_name_H-M_alt    "P 1"
_space_group_IT_number       1

loop_
  _space_group_symop_operation_xyz
  'x, y, z'

loop_
  _atom_site_type_symbol
  _atom_site_label
  _atom_site_symmetry_multiplicity
  _atom_site_fract_x
  _atom_site_fract_y
  _atom_site_fract_z
  _atom_site_occupancy
  H   H1        1.0  0.88783871977433  0.7652370695031057  0.8515378921071501  1.0000
  H   H2        1.0  0.11216128034502008  0.23476293019389613  0.14846210809398683  1.0000
  H   H3        1.0  0.7141569120188145  0.6831793519638937  0.8929840083254778  1.0000
  H   H4        1.0  0.28584308789759116  0.31682064869123827  0.10701599118594471  1.0000
  H   H5        1.0  0.6008158903043205  0.644546852174961  0.8106667047022904  1.0000
  H   H6        1.0  0.3991841098150295  0.3554531475220409  0.18933329549884648  1.0000
  H   H7        1.0  0.4287716214353953  0.5577817770069988  0.849204021607245  1.0000
  H   H8        1.0  0.5712283783783809  0.44221822335633826  0.1507959785986049  1.0000
  H   H9        1.0  0.655899309658019  0.2969534097544393  0.013526764628267884  1.0000
  H   H10       1.0  0.344100690461331  0.7030465899425625  0.986473235572869  1.0000
  H   H11       1.0  0.8344422291407174  0.3725413114402285  0.9847810381546277  1.0000
  H   H12       1.0  0.16555777067305888  0.6274586889231085  0.01521896205122213  1.0000
  H   H13       1.0  0.9639285241580272  0.4409564351543051  0.8503549134587424  1.0000
  H   H14       1.0  0.0360714759613228  0.5590435645426968  0.1496450867423945  1.0000
  H   H15       1.0  0.14918458980802393  0.5117771244843728  0.8104489447476739  1.0000
  H   H16       1.0  0.8508154100057523  0.48822287587896424  0.18955105545817585  1.0000
  H   H17       1.0  0.3737332971234467  0.15726160694436836  0.505402088737161  1.0000
  H   H18       1.0  0.6262667030985325  0.8427383930444281  0.4945979107695486  1.0000
  H   H19       1.0  0.5657049896457581  0.12771361681830398  0.5755361365437669  1.0000
  H   H20       1.0  0.43429501057622133  0.8722863831704925  0.4244638629629427  1.0000
  H   H21       1.0  0.7205980285247311  0.010513835397106108  0.6482320401684877  1.0000
  H   H22       1.0  0.2794019715946187  0.9894861642998959  0.3517679600326494  1.0000
  H   H23       1.0  0.9035634586051386  0.9978696141292065  0.7213644775078957  1.0000
  H   H24       1.0  0.09643654120863772  0.0021303862341305125  0.2786355226979541  1.0000
  H   H25       1.0  0.08587729041700323  0.14501296038520067  0.46596063313389796  1.0000
  H   H26       1.0  0.9141227097023468  0.8549870393118013  0.534039367067239  1.0000
  H   H27       1.0  0.9063567776168463  0.17011654417228905  0.38215630680458945  1.0000
  H   H28       1.0  0.09364322250250359  0.8298834555247128  0.6178436933965474  1.0000
  H   H29       1.0  0.8076021235660715  0.08398584919584468  0.3498822794784185  1.0000
  H   H30       1.0  0.19239787655327842  0.9160141505011572  0.6501177207227183  1.0000
  H   H31       1.0  0.6250160716148925  0.11700232809448576  0.26791550887851734  1.0000
  H   H32       1.0  0.37498392850445744  0.8829976716025162  0.7320844913226197  1.0000
  H   H33       1.0  0.682223127757763  0.27215907460869754  0.7408494418493097  1.0000
  H   H34       1.0  0.3177768724642164  0.727840925380099  0.2591505576574  1.0000
  H   H35       1.0  0.849749991205279  0.2582254783669064  0.7442172123725063  1.0000
  H   H36       1.0  0.15025000891407087  0.7417745213300955  0.2557827878286307  1.0000
  C   C1        1.0  0.03680896348314494  0.6468343895351918  0.8252577832584246  1.0000
  C   C2        1.0  0.9631910366362051  0.35316561016181  0.1747422169427124  1.0000
  C   C3        1.0  0.9096709052873696  0.6936049536642162  0.8499266009237851  1.0000
  C   C4        1.0  0.09032909452640678  0.306395046699121  0.1500733992820647  1.0000
  C   C5        1.0  0.8117330796702155  0.6495994892019826  0.8728342737233815  1.0000
  C   C6        1.0  0.18826692014356095  0.35040051116135457  0.12716572648246824  1.0000
  C   C7        1.0  0.7299943659822453  0.5143721134469984  0.8950935797241238  1.0000
  C   C8        1.0  0.2700056341371047  0.4856278862500034  0.10490642047701297  1.0000
  C   C9        1.0  0.6146888821537855  0.5679642869401366  0.8574297201618128  1.0000
  C   C10       1.0  0.38531111776262017  0.4320357137149953  0.1425702793496096  1.0000
  C   C11       1.0  0.5197766314880927  0.5192806805574369  0.878561158650873  1.0000
  C   C12       1.0  0.4802233686312573  0.48071931913956495  0.12143884155026388  1.0000
  C   C13       1.0  0.6460760043710659  0.37406327239088244  0.9694903114199768  1.0000
  C   C14       1.0  0.35392399574828387  0.6259367273061194  0.03050968878116023  1.0000
  C   C15       1.0  0.7466025635915451  0.4159225529240687  0.9527579666560819  1.0000
  C   C16       1.0  0.2533974366304343  0.5840774470647278  0.047242032850627724  1.0000
  C   C17       1.0  0.9540226413084603  0.5113882388039367  0.8508167224062935  1.0000
  C   C18       1.0  0.045977357912480005  0.4886117608927694  0.14918327779299548  1.0000
  C   C19       1.0  0.05477755232583352  0.5522142417721194  0.82819404358497  1.0000
  C   C20       1.0  0.9452224477935164  0.44778575792488234  0.171805956616167  1.0000
  C   C21       1.0  0.4797247178800359  0.14333048886100602  0.3776149566574156  1.0000
  C   C22       1.0  0.5202752822393141  0.8566695108359959  0.6223850435437214  1.0000
  C   C23       1.0  0.467498403500994  0.1417856185805059  0.4681016215597034  1.0000
  C   C24       1.0  0.5325015963127824  0.8582143817828312  0.5318983786461464  1.0000
  C   C25       1.0  0.5726743211036492  0.12424944728145655  0.5089055651146993  1.0000
  C   C26       1.0  0.4273256791183301  0.87575055270734  0.49109443439201034  1.0000
  C   C27       1.0  0.7997847309719512  0.09201293070856845  0.5093692377505562  1.0000
  C   C28       1.0  0.20021526914739876  0.9079870689884334  0.4906307624505807  1.0000
  C   C29       1.0  0.7984325011716433  0.04306584512283256  0.6056114733402644  1.0000
  C   C30       1.0  0.20156749864213303  0.9569341552405046  0.3943885268655854  1.0000
  C   C31       1.0  0.9015537025371859  0.034805279151380784  0.646231042249395  1.0000
  C   C32       1.0  0.09844629727659046  0.9651947212119562  0.3537689579564549  1.0000
  C   C33       1.0  0.0031912848161688343  0.11611245438189449  0.5042748147413448  1.0000
  C   C34       1.0  0.9968087153031813  0.8838875453151072  0.49572518545979205  1.0000
  C   C35       1.0  0.9038869630504542  0.12934751647966256  0.4571386159587438  1.0000
  C   C36       1.0  0.09611303686595142  0.8706524841754695  0.5428613835526788  1.0000
  C   C37       1.0  0.7096474709752346  0.10287932685484338  0.37955967669793605  1.0000
  C   C38       1.0  0.29035252924674465  0.8971206731339534  0.6204403228087735  1.0000
  C   C39       1.0  0.606901575372984  0.12071057946063621  0.3357614673277657  1.0000
  C   C40       1.0  0.39309842444079246  0.8792894209027009  0.664238532878084  1.0000
  C   C41       1.0  0.3304959255438589  0.25321585705898114  0.8413050867004809  1.0000
  C   C42       1.0  0.669504074575491  0.7467841426380206  0.15869491350065607  1.0000
  C   C43       1.0  0.402753382273947  0.205496280857955  0.7840020719167351  1.0000
  C   C44       1.0  0.5972466176424587  0.7945037197971768  0.21599792759468747  1.0000
  C   C45       1.0  0.3453205482493469  0.17218580162750016  0.7401640712480833  1.0000
  C   C46       1.0  0.654679451870003  0.8278141980695016  0.25983592895305363  1.0000
  C   C47       1.0  0.21384004807352736  0.18414957523512848  0.7514253377777782  1.0000
  C   C48       1.0  0.786159951147413  0.8158504244615779  0.24857466242151083  1.0000
  C   C49       1.0  0.14163722895362954  0.23127231993435232  0.809086827082554  1.0000
  C   C50       1.0  0.8583627712683496  0.7687276800544443  0.1909131724241558  1.0000
  C   C51       1.0  0.19919767185700396  0.2638538390947636  0.8537624575627851  1.0000
  C   C52       1.0  0.8008023283649753  0.736146160894033  0.14623754194392455  1.0000
  C   C53       1.0  0.9055273797840359  0.08534632808081649  0.973278293974531  1.0000
  C   C54       1.0  0.0944726192339602  0.9146536725740197  0.026721705535043667  1.0000
  C   C55       1.0  0.965428026087839  0.05950827352955783  0.050833049646568214  1.0000
  C   C56       1.0  0.03457197413414012  0.9404917264592388  0.9491669498601414  1.0000
  C   C57       1.0  0.060303778927576816  0.9730149836945421  0.07695132401042028  1.0000
  C   C58       1.0  0.9396962212944027  0.02698501629425444  0.9230486754962893  1.0000
  C   C59       1.0  0.4017478218772818  0.9993257243368188  0.9615854143189155  1.0000
  C   C60       1.0  0.5982521779364947  0.000674276026518297  0.038414585886934305  1.0000
  C   C61       1.0  0.3760197015758944  0.04367466041730309  0.024092648085947785  1.0000
  C   C62       1.0  0.6239802985434555  0.9563253392796988  0.9759073521151891  1.0000
  C   C63       1.0  0.4738622586143584  0.044469689281987974  0.06400421272812197  1.0000
  C   C64       1.0  0.526137741199418  0.9555303110813491  0.9359957874777278  1.0000
  C   C65       1.0  0.4328677298771717  0.45310467204687505  0.5818568824656792  1.0000
  C   C66       1.0  0.5671322702421784  0.5468953276501268  0.4181431177354576  1.0000
  C   C67       1.0  0.4364596045650217  0.5478822868126859  0.5603648512288937  1.0000
  C   C68       1.0  0.5635403955543283  0.452117712884316  0.43963514897224315  1.0000
  C   C69       1.0  0.5044803833472067  0.5944577914943205  0.47718686213947603  1.0000
  C   C70       1.0  0.49551961677214346  0.40554220820268116  0.522813138061661  1.0000
  C   C71       1.0  0.8914683208185424  0.5697896818023698  0.4657571906345378  1.0000
  C   C72       1.0  0.10853167930080758  0.4302103178946321  0.5342428095665991  1.0000
  C   C73       1.0  0.9304767560534482  0.5635074946216087  0.5449340934400441  1.0000
  C   C74       1.0  0.06952324286191858  0.4364925057414329  0.4550659067639578  1.0000
  C   C75       1.0  0.03980334461910811  0.49222063887720424  0.5788678211443038  1.0000
  C   C76       1.0  0.9601966555002418  0.5077793608197975  0.4211321790568331  1.0000
  C   C77       1.0  0.7649318512196116  0.30268125667836265  0.7081640585898414  1.0000
  C   C78       1.0  0.23506814869679413  0.6973187439767692  0.291835940921581  1.0000
  N   N1        1.0  0.8330517242216191  0.5592082447982327  0.8732052851673483  1.0000
  N   N2        1.0  0.16694827600036005  0.4407917551905639  0.12679471433936135  1.0000
  N   N3        1.0  0.5348015527206945  0.4242679715464657  0.9331687235628724  1.0000
  N   N4        1.0  0.4651984465002461  0.5757320281502404  0.06683127663641662  1.0000
  N   N5        1.0  0.6933366564053675  0.10548518334684735  0.4653508861671692  1.0000
  N   N6        1.0  0.30666334371398246  0.8945148163501546  0.5346491140339678  1.0000
  N   N7        1.0  0.0025059179286387005  0.07034606927920647  0.596978659349162  1.0000
  N   N8        1.0  0.9974940818851377  0.9296539310841306  0.4030213408566878  1.0000
  F   F1        1.0  0.5315628914778431  0.19215355511473148  0.7681435417028566  1.0000
  F   F2        1.0  0.46843710864150695  0.8078464445822704  0.2318564584982803  1.0000
  F   F3        1.0  0.42053006278307364  0.12662966797563593  0.6848118989401732  1.0000
  F   F4        1.0  0.5794699374389058  0.8733703320131606  0.31518810056653634  1.0000
  F   F5        1.0  0.012382754890994618  0.24720927005145324  0.8228447144024202  1.0000
  F   F6        1.0  0.9876172452283551  0.7527907296455486  0.1771552857987167  1.0000
  F   F7        1.0  0.12312921064037631  0.30854426057739076  0.90988889662075  1.0000
  F   F8        1.0  0.8768707895816028  0.691455739411406  0.09011110288595961  1.0000
  F   F9        1.0  0.8101602089717364  0.16791108751985018  0.9459568600925408  1.0000
  F   F10       1.0  0.18983979094466924  0.8320889131352818  0.054043139418881704  1.0000
  F   F11       1.0  0.12345014754132737  0.9441559083348018  0.15148904100118848  1.0000
  F   F12       1.0  0.8765498525780226  0.0558440913622001  0.8485109591999483  1.0000
  F   F13       1.0  0.30321283558484136  0.0007335826164718307  0.9242036874085361  1.0000
  F   F14       1.0  0.6967871643315643  0.9992664180386601  0.07579631210288645  1.0000
  F   F15       1.0  0.25349919945887606  0.08819899012575201  0.04466814493325674  1.0000
  F   F16       1.0  0.7465008003549005  0.9118010102375851  0.9553318552725931  1.0000
  F   F17       1.0  0.36718859786988167  0.40548229563419  0.6619467116024307  1.0000
  F   F18       1.0  0.6328114013510588  0.5945177040625161  0.3380532885968583  1.0000
  F   F19       1.0  0.5088208386569817  0.6875931793480697  0.4515154975681533  1.0000
  F   F20       1.0  0.49117916056395866  0.31240682034863654  0.5484845026311358  1.0000
  F   F21       1.0  0.7843119035183318  0.6366169185587889  0.4311766986559892  1.0000
  F   F22       1.0  0.21568809629544455  0.3633830818045481  0.5688233015498607  1.0000
  F   F23       1.0  0.08156599679939402  0.4819895997083644  0.6563134207441331  1.0000
  F   F24       1.0  0.9184340033199558  0.5180103999886374  0.34368657945700387  1.0000
  S   S1        1.0  0.1613750778419041  0.6998822931470744  0.7931976863052989  1.0000
  S   S2        1.0  0.8386249223800751  0.3001177068417221  0.20680231320141074  1.0000
  S   S3        1.0  0.34806964915912386  0.17241397648683635  0.3237605103366086  1.0000
  S   S4        1.0  0.6519303510628555  0.8275860235019604  0.676239489170101  1.0000
  Cl  Cl1       1.0  0.7999053310111944  0.30787639197072253  0.5929099285010532  1.0000
  Cl  Cl2       1.0  0.2000946689052111  0.6921236086844093  0.4070900710103695  1.0000
  Cl  Cl3       1.0  0.7268201063593961  0.4196115537663329  0.7110523106368852  1.0000
  Cl  Cl4       1.0  0.27317989345438015  0.5803884465970042  0.28894768956896455  1.0000
  I   I1        1.0  0.4132404604340038  0.32067786007466514  0.8935035629346864  1.0000
  I   I2        1.0  0.5867595393797728  0.6793221402886719  0.10649643727116345  1.0000
  I   I3        1.0  0.13137858521243592  0.1309873207766164  0.6846894526810439  1.0000
  I   I4        1.0  0.8686214149069142  0.8690126789203854  0.315310547520093  1.0000
  I   I5        1.0  0.9156899797137265  0.1526107627828423  0.12320440511427437  1.0000
  I   I6        1.0  0.08431002050825274  0.8473892372059544  0.8767955943924352  1.0000
  I   I7        1.0  0.43235266794716554  0.10393405621456062  0.16654742866740277  1.0000
  I   I8        1.0  0.5676473322748138  0.896065943774236  0.8334525708393069  1.0000
  I   I9        1.0  0.33430715169213765  0.6166200874146164  0.6515497597688528  1.0000
  I   I10       1.0  0.6656928481216386  0.3833799129487208  0.34845024043699707  1.0000
  I   I11       1.0  0.82729284581384  0.6620026250209253  0.6073434102528196  1.0000
  I   I12       1.0  0.17270715399993627  0.3379973753424119  0.39265658995303016  1.0000
