data_image0
_chemical_formula_structural       H26C38N10O4
_chemical_formula_sum              "H26 C38 N10 O4"
_cell_length_a       7.096601412361636
_cell_length_b       8.63733576881289
_cell_length_c       13.96882114262566
_cell_angle_alpha    86.47068395479056
_cell_angle_beta     87.24066945433934
_cell_angle_gamma    74.52273720122587

_space_group_name_H-M_alt    "P 1"
_space_group_IT_number       1

loop_
  _space_group_symop_operation_xyz
  'x, y, z'

loop_
  _atom_site_type_symbol
  _atom_site_label
  _atom_site_symmetry_multiplicity
  _atom_site_fract_x
  _atom_site_fract_y
  _atom_site_fract_z
  _atom_site_occupancy
  H   H1        1.0  0.5212802313511469  0.07804363623429043  0.7245060796020714  1.0000
  H   H2        1.0  0.47871976852764486  0.9219563641168488  0.2754939204333941  1.0000
  H   H3        1.0  0.41103015426077805  0.28908210207240037  0.7260333672249848  1.0000
  H   H4        1.0  0.5889698456180136  0.710917898278739  0.27396663281048067  1.0000
  H   H5        1.0  0.8324454238784146  0.44344167461858064  0.557866847667064  1.0000
  H   H6        1.0  0.1675545760003773  0.5565583257325586  0.4421331523684015  1.0000
  H   H7        1.0  0.7331808003212413  0.35309782183656396  0.73171406182159  1.0000
  H   H8        1.0  0.26681919955755046  0.6469021785145753  0.2682859382138755  1.0000
  H   H9        1.0  0.829642507714781  0.14095975488016702  0.7448767082495463  1.0000
  H   H10       1.0  0.17035749254777122  0.8590402442681468  0.2551232918282322  1.0000
  H   H11       1.0  0.9346221327655635  0.2527316146449191  0.6568987414323126  1.0000
  H   H12       1.0  0.06537786711322828  0.7472683857062201  0.34310125860315277  1.0000
  H   H13       1.0  0.6428888512431893  0.06730971045164492  0.5027743674503408  1.0000
  H   H14       1.0  0.35711114863628474  0.9326902898895618  0.4972256318696316  1.0000
  H   H15       1.0  0.8715686983356704  0.10985163916493457  0.5160112870455096  1.0000
  H   H16       1.0  0.1284313019268817  0.8901483599833795  0.4839887130322689  1.0000
  H   H17       1.0  0.7968033525921264  0.968588989394182  0.5973397065232281  1.0000
  H   H18       1.0  0.20319664728666528  0.03141101095695727  0.4026602935122374  1.0000
  H   H19       1.0  0.664239325362081  0.7311190642474865  0.027686926567270388  1.0000
  H   H20       1.0  0.3357606745167108  0.26888093610365277  0.9723130734681951  1.0000
  H   H21       1.0  0.5889796954639025  0.5481865324086386  0.15647889662373166  1.0000
  H   H22       1.0  0.4110203044148892  0.45181346794250077  0.8435211034117338  1.0000
  H   H23       1.0  0.8671910132618098  0.13844674338583504  0.9875733668126164  1.0000
  H   H24       1.0  0.1328089866169818  0.8615532569653042  0.012426633222849166  1.0000
  H   H25       1.0  0.9521547653492958  0.31848076868591735  0.8617040632497149  1.0000
  H   H26       1.0  0.04784523452949599  0.6815192316652218  0.13829593678575053  1.0000
  C   C1        1.0  0.26526504683008906  0.28536863374027943  0.5500025512474024  1.0000
  C   C2        1.0  0.7347349534324633  0.7146313654080345  0.44999744883037607  1.0000
  C   C3        1.0  0.4765237254261554  0.18900943460341826  0.679703503377447  1.0000
  C   C4        1.0  0.5234762748363968  0.8109905645448956  0.32029649670033133  1.0000
  C   C5        1.0  0.6528221013134207  0.21787616332275733  0.6220270919369931  1.0000
  C   C6        1.0  0.3471778985660534  0.7821238370184493  0.3779729073829791  1.0000
  C   C7        1.0  0.38627471268682173  0.3983167393579349  0.5280040278195313  1.0000
  C   C8        1.0  0.6137252871919701  0.6016832609932043  0.4719959722159342  1.0000
  C   C9        1.0  0.6848721107453227  0.4680961798089454  0.5320768566323145  1.0000
  C   C10       1.0  0.315127889133469  0.5319038205421939  0.4679231434031509  1.0000
  C   C11       1.0  0.7969715792584804  0.2439310362915821  0.692652379198044  1.0000
  C   C12       1.0  0.20302842062031148  0.7560689640595571  0.30734762083742134  1.0000
  C   C13       1.0  0.7459736339826917  0.08241143110388278  0.5551814012254431  1.0000
  C   C14       1.0  0.25402636589610006  0.9175885692472565  0.44481859881002234  1.0000
  C   C15       1.0  0.8093090661807698  0.5395349849714244  0.9329430697189803  1.0000
  C   C16       1.0  0.1906909340817825  0.4604650141768895  0.06705693035879817  1.0000
  C   C17       1.0  0.7063224950363909  0.6017800521584984  0.018867997155960874  1.0000
  C   C18       1.0  0.293677504842401  0.39821994819264084  0.9811320028795046  1.0000
  C   C19       1.0  0.6656343035124499  0.4996246248808634  0.09098231147231076  1.0000
  C   C20       1.0  0.33436569636634184  0.5003753754702759  0.9090176885631547  1.0000
  C   C21       1.0  0.7219298515986065  0.3293169066518474  0.0823717504086694  1.0000
  C   C22       1.0  0.2780701482801853  0.6706830936992919  0.917628249626796  1.0000
  C   C23       1.0  0.8232277697424624  0.26777803335194594  0.9961799841195746  1.0000
  C   C24       1.0  0.17677223052008997  0.732221965796368  0.0038200159582037576  1.0000
  C   C25       1.0  0.867359087038621  0.3690973031308278  0.9247384663123731  1.0000
  C   C26       1.0  0.13264091284017085  0.6309026972203114  0.07526153372309244  1.0000
  C   C27       1.0  0.8559041672525936  0.6421491224447874  0.8579780222855942  1.0000
  C   C28       1.0  0.14409583300995873  0.35785087670352655  0.14202197779218426  1.0000
  C   C29       1.0  0.962173829898325  0.5791877129065487  0.7744000096452108  1.0000
  C   C30       1.0  0.03782616998046693  0.42081228744459054  0.22559999039025466  1.0000
  C   C31       1.0  0.7994309305728029  0.8112585891470515  0.8616480006846394  1.0000
  C   C32       1.0  0.20056906968974939  0.1887414100012624  0.138351999393139  1.0000
  C   C33       1.0  0.6809718005830924  0.22326003967374963  0.15709577382129983  1.0000
  C   C34       1.0  0.31902819967945983  0.7767399594745643  0.8429042262564787  1.0000
  C   C35       1.0  0.7309477869799027  0.05546300733636086  0.14819491810638025  1.0000
  C   C36       1.0  0.26905221328333184  0.9445369918020206  0.8518050812559051  1.0000
  C   C37       1.0  0.5903829152535494  0.27767599574568297  0.2452908245013138  1.0000
  C   C38       1.0  0.409617085009003  0.7223240034026309  0.7547091755764647  1.0000
  N   N1        1.0  0.5754127114847701  0.3677150102140186  0.5601862101172073  1.0000
  N   N2        1.0  0.4245872883940215  0.6322849901371207  0.43981378991825815  1.0000
  N   N3        1.0  0.05189529143492576  0.5236680025170566  0.7064030413023696  1.0000
  N   N4        1.0  0.9481047088276265  0.47633199663125747  0.2935969587754088  1.0000
  N   N5        1.0  0.7535723050981469  0.9518982540656422  0.8635890173108419  1.0000
  N   N6        1.0  0.2464276951644053  0.04810174508267156  0.13641098276693664  1.0000
  N   N7        1.0  0.7688495606280955  0.9158019189536726  0.1420681136510044  1.0000
  N   N8        1.0  0.2311504392506962  0.08419808139746668  0.857931886384461  1.0000
  N   N9        1.0  0.5159828701476119  0.32051278381071757  0.319261173803874  1.0000
  N   N10       1.0  0.4840171301149403  0.6794872153375963  0.6807388262739044  1.0000
  O   O1        1.0  0.11838923260558482  0.2912529568402887  0.5056486624895578  1.0000
  O   O2        1.0  0.8816107676569674  0.7087470423080252  0.4943513375882207  1.0000
  O   O3        1.0  0.3254079693879313  0.1687511330826169  0.6192765388870478  1.0000
  O   O4        1.0  0.6745920308746209  0.831248866065697  0.38072346119073064  1.0000
