data_image0
_chemical_formula_structural       H84C76N20O12P12Cl16
_chemical_formula_sum              "H84 C76 N20 O12 P12 Cl16"
_cell_length_a       16.435842716763045
_cell_length_b       7.9834246298181695
_cell_length_c       19.95163139844961
_cell_angle_alpha    90.0
_cell_angle_beta     105.96708717380908
_cell_angle_gamma    90.0

_space_group_name_H-M_alt    "P 1"
_space_group_IT_number       1

loop_
  _space_group_symop_operation_xyz
  'x, y, z'

loop_
  _atom_site_type_symbol
  _atom_site_label
  _atom_site_symmetry_multiplicity
  _atom_site_fract_x
  _atom_site_fract_y
  _atom_site_fract_z
  _atom_site_occupancy
  H   H1        1.0  0.6211086401185264  0.4489683583424319  0.6046228589989312  1.0000
  H   H2        1.0  0.8788913598911006  0.9489683589801174  0.895377141322946  1.0000
  H   H3        1.0  0.3788913599460127  0.5510316416803442  0.3953771413894286  1.0000
  H   H4        1.0  0.12110863999907523  0.051031641042658546  0.10462285854408888  1.0000
  H   H5        1.0  0.3926773038769496  0.7173329461407383  0.5035729606017395  1.0000
  H   H6        1.0  0.1073226959253046  0.2173329455030526  0.9964270391371962  1.0000
  H   H7        1.0  0.6073226960132261  0.2826670538820378  0.4964270392652954  1.0000
  H   H8        1.0  0.8926773039648712  0.7826670545197235  0.0035729607298386826  1.0000
  H   H9        1.0  0.5131801930912935  0.6652516302544418  0.6082054034358333  1.0000
  H   H10       1.0  0.9868198069183336  0.16525162961675607  0.8917945968860441  1.0000
  H   H11       1.0  0.4868198069732458  0.33474836976833433  0.3917945969525266  1.0000
  H   H12       1.0  0.013180192971842112  0.83474837040602  0.10820540298099085  1.0000
  H   H13       1.0  0.3236423720139897  0.3232593241202527  0.6509579077106837  1.0000
  H   H14       1.0  0.1763576277882646  0.8232593235053431  0.8490420920282522  1.0000
  H   H15       1.0  0.676357627876186  0.6767406759025234  0.3490420921563512  1.0000
  H   H16       1.0  0.8236423721019113  0.17674067651743297  0.15095790783878293  1.0000
  H   H17       1.0  0.3903519449908239  0.4875826879433642  0.6362818654281691  1.0000
  H   H18       1.0  0.10964805559414045  0.9875826885810498  0.8637181348318532  1.0000
  H   H19       1.0  0.6096480556820619  0.5124173120794119  0.36371813495995237  1.0000
  H   H20       1.0  0.8903519442960354  0.012417311441726213  0.13628186503518172  1.0000
  H   H21       1.0  0.018785828731890625  0.47257809210205187  0.8981509636154703  1.0000
  H   H22       1.0  0.4812141718530737  0.9725780914871424  0.601849036644552  1.0000
  H   H23       1.0  0.9812141719409951  0.5274219079207242  0.10184903677265121  1.0000
  H   H24       1.0  0.518785828037102  0.027421908535633806  0.3981509632224829  1.0000
  H   H25       1.0  0.14707898314619913  0.4779168172702972  0.704849661561031  1.0000
  H   H26       1.0  0.35292101683041843  0.9779168179079829  0.7951503386992295  1.0000
  H   H27       1.0  0.8529210167439766  0.5220831827524789  0.2951503383060038  1.0000
  H   H28       1.0  0.6470789832341207  0.02208318211479319  0.20484966168913032  1.0000
  H   H29       1.0  0.9478079743961957  0.714689303721773  0.6429580609761992  1.0000
  H   H30       1.0  0.5521920254390679  0.21468930308408726  0.8570419388243531  1.0000
  H   H31       1.0  0.052192025493980096  0.28531069630100314  0.3570419388908357  1.0000
  H   H32       1.0  0.44780797445110776  0.7853106969386888  0.14295806104268177  1.0000
  H   H33       1.0  0.0003767389494350735  0.8190734795161375  0.44657988319062  1.0000
  H   H34       1.0  0.49962326099565285  0.3190734801310472  0.05342011674289755  1.0000
  H   H35       1.0  0.9996232609407408  0.18092652050663852  0.553420116676415  1.0000
  H   H36       1.0  0.5003767388945228  0.6809265198917289  0.9465798831241374  1.0000
  H   H37       1.0  0.1290013638483045  0.6428853002294702  0.4821390467129598  1.0000
  H   H38       1.0  0.3709986360967834  0.14288530084437975  0.017860953220557724  1.0000
  H   H39       1.0  0.870998636650218  0.35711469979330596  0.5178609531538368  1.0000
  H   H40       1.0  0.6290013637933923  0.8571146991783963  0.9821390466464772  1.0000
  H   H41       1.0  0.43673054804500644  0.4456207648923502  0.783507413830254  1.0000
  H   H42       1.0  0.06326945175724782  0.9456207655300358  0.7164925859086818  1.0000
  H   H43       1.0  0.5632694518451693  0.5543792351304259  0.21649258603678087  1.0000
  H   H44       1.0  0.936730548132928  0.05437923449274022  0.2835074139583532  1.0000
  H   H45       1.0  0.12529969395175306  0.24311329285314562  0.7969263432914111  1.0000
  H   H46       1.0  0.37470030602486454  0.7431132922382361  0.7030736569688495  1.0000
  H   H47       1.0  0.8747003059384227  0.7568867071696305  0.20307365657562385  1.0000
  H   H48       1.0  0.6252996940396746  0.2568867077845401  0.2969263434195103  1.0000
  H   H49       1.0  0.3213629820166401  0.6270989834739663  0.9418325218487856  1.0000
  H   H50       1.0  0.17863701795997755  0.12709898408887596  0.5581674784114751  1.0000
  H   H51       1.0  0.678637018047899  0.3729010165488097  0.058167478539574206  1.0000
  H   H52       1.0  0.8213629819301983  0.8729010159339001  0.4418325214555599  1.0000
  H   H53       1.0  0.3444136623321918  0.6341915963093794  0.837551002445162  1.0000
  H   H54       1.0  0.15558633764442584  0.1341915969242889  0.6624489978150986  1.0000
  H   H55       1.0  0.6555863377323473  0.3658084037133968  0.16244899794319775  1.0000
  H   H56       1.0  0.8444136622457499  0.8658084030984872  0.33755100205193633  1.0000
  H   H57       1.0  0.3500844874927545  0.3028787459167223  0.761435664043702  1.0000
  H   H58       1.0  0.1499155124838631  0.8028787453018127  0.7385643362165586  1.0000
  H   H59       1.0  0.6499155123974213  0.6971212541060537  0.23856433582333292  1.0000
  H   H60       1.0  0.850084487580676  0.19712125472096337  0.26143566417180125  1.0000
  H   H61       1.0  0.38204184061530044  0.4421884596761583  0.8820651433669329  1.0000
  H   H62       1.0  0.11795815996966387  0.942188460313844  0.6179348568930896  1.0000
  H   H63       1.0  0.6179581594492387  0.5578115403466178  0.11793485702142706  1.0000
  H   H64       1.0  0.8820418405288585  0.05781153970893215  0.3820651429737071  1.0000
  H   H65       1.0  0.2600356621769841  0.4794572451656226  0.5399344875513944  1.0000
  H   H66       1.0  0.2399643376252701  0.9794572458033083  0.9600655121875414  1.0000
  H   H67       1.0  0.7399643377131917  0.5205427536045582  0.46006551231564063  1.0000
  H   H68       1.0  0.7600356622649055  0.020542754219467756  0.03993448767949354  1.0000
  H   H69       1.0  0.2599146331253817  0.6674293423023597  0.5885561845208804  1.0000
  H   H70       1.0  0.24008536685123583  0.16742934291726932  0.91144381573938  1.0000
  H   H71       1.0  0.740085366764794  0.3325706577204164  0.4114438153461545  1.0000
  H   H72       1.0  0.7599146332133032  0.8325706571055067  0.08855618464897966  1.0000
  H   H73       1.0  0.24155820543056106  0.7216688735910596  0.023473281879580452  1.0000
  H   H74       1.0  0.25844179451452687  0.22166887295337392  0.47652671805393704  1.0000
  H   H75       1.0  0.7584417944596146  0.2783311264317165  0.9765267179874544  1.0000
  H   H76       1.0  0.7415582053756489  0.7783311270694021  0.5234732818130979  1.0000
  H   H77       1.0  0.9108681285580532  0.8589696925786832  0.5288268596982661  1.0000
  H   H78       1.0  0.5891318712772103  0.3589696919409975  0.9711731401022862  1.0000
  H   H79       1.0  0.08913187133212247  0.14103030744409292  0.47117314016876877  1.0000
  H   H80       1.0  0.4108681286129654  0.6410303080817786  0.02882685976474871  1.0000
  H   H81       1.0  0.0880996067634504  0.6523557121774466  0.00041185578488206665  1.0000
  H   H82       1.0  0.41190039318163746  0.15235571279235624  0.4995881441486354  1.0000
  H   H83       1.0  0.9119003931267253  0.3476442878453294  0.9995881440821528  1.0000
  H   H84       1.0  0.5880996068829017  0.8476442872304198  0.5004118562397245  1.0000
  C   C1        1.0  0.5075288488205587  0.5929797536158141  0.5607360060086991  1.0000
  C   C2        1.0  0.9924711516230516  0.09297975297812847  0.9392639937916151  1.0000
  C   C3        1.0  0.4924711516779636  0.40702024640696194  0.4392639938580976  1.0000
  C   C4        1.0  0.007528848875470915  0.9070202470446477  0.06073600607518162  1.0000
  C   C5        1.0  0.5681082711870571  0.47143007099269385  0.5587896504729637  1.0000
  C   C6        1.0  0.9318917286482066  0.9714300703777843  0.9412103493275886  1.0000
  C   C7        1.0  0.43189172870311865  0.5285699290300822  0.4412103493940711  1.0000
  C   C8        1.0  0.06810827124196925  0.028569929644991825  0.058789650539446334  1.0000
  C   C9        1.0  0.43945249725166746  0.6214828172196328  0.5019773017286057  1.0000
  C   C10       1.0  0.060547502724950054  0.12148281658194715  0.9980226985316549  1.0000
  C   C11       1.0  0.5605475028128716  0.3785171828031432  0.4980226986597542  1.0000
  C   C12       1.0  0.9394524971652256  0.878517183440829  0.001977301335379914  1.0000
  C   C13       1.0  0.05888392889245999  0.597506880967278  0.627360434918912  1.0000
  C   C14       1.0  0.44111607090979427  0.09750688032959232  0.8726395648200238  1.0000
  C   C15       1.0  0.9411160709977158  0.40249311905549806  0.37263956494812295  1.0000
  C   C16       1.0  0.5588839289803814  0.9024931196931838  0.1273604350470112  1.0000
  C   C17       1.0  0.11067448073224305  0.5798336233689015  0.5819663768159886  1.0000
  C   C18       1.0  0.3893255190700112  0.07983362273121582  0.9180336229229472  1.0000
  C   C19       1.0  0.8893255191579327  0.4201663766538746  0.41803362305104635  1.0000
  C   C20       1.0  0.6106744808201646  0.9201663772915603  0.0819663769440878  1.0000
  C   C21       1.0  0.1299577744350029  0.44942862197243794  0.8628385612670363  1.0000
  C   C22       1.0  0.37004222614996135  0.9494286213575283  0.6371614389929859  1.0000
  C   C23       1.0  0.8700422256295363  0.5505713780503382  0.1371614391213235  1.0000
  C   C24       1.0  0.629957774348561  0.05057137866524775  0.3628385608738106  1.0000
  C   C25       1.0  0.36746390878528334  0.4355426864071485  0.7719935011556701  1.0000
  C   C26       1.0  0.13253609119133422  0.9355426857922389  0.7280064991045906  1.0000
  C   C27       1.0  0.6325360912792557  0.5644573136156276  0.2280064992326897  1.0000
  C   C28       1.0  0.8674639086988415  0.06445731423053722  0.27199350076244444  1.0000
  C   C29       1.0  0.21589862154243797  0.4949893577300553  0.8744095431807118  1.0000
  C   C30       1.0  0.2841013784341796  0.994989358367741  0.6255904570795487  1.0000
  C   C31       1.0  0.7841013785221012  0.5050106422927207  0.12559045720764794  1.0000
  C   C32       1.0  0.715898621455996  0.005010641655035089  0.37440954278748617  1.0000
  C   C33       1.0  0.32969337305742735  0.46016250673661985  0.6477335691132243  1.0000
  C   C34       1.0  0.1703066269191903  0.9601625073743055  0.8522664311470364  1.0000
  C   C35       1.0  0.6703066268327484  0.5398374932861563  0.3522664307538106  1.0000
  C   C36       1.0  0.8296933731453489  0.03983749264847055  0.14773356924132355  1.0000
  C   C37       1.0  0.255668967979993  0.5903198500049394  0.9331140977823594  1.0000
  C   C38       1.0  0.2443310319966245  0.09031985061984896  0.566885902477901  1.0000
  C   C39       1.0  0.7443310319101827  0.40968015001783675  0.0668859020846754  1.0000
  C   C40       1.0  0.7556689680679146  0.9096801494029272  0.4331140979104587  1.0000
  C   C41       1.0  0.016712537265608743  0.7586008236841008  0.49745681710578876  1.0000
  C   C42       1.0  0.4832874626794792  0.2586008242990104  0.00254318282772872  1.0000
  C   C43       1.0  0.9832874626245671  0.24139917633867533  0.5025431827612462  1.0000
  C   C44       1.0  0.5167125372106965  0.7413991757237658  0.9974568170393062  1.0000
  C   C45       1.0  0.9658997724900448  0.777584293438916  0.5425548393978568  1.0000
  C   C46       1.0  0.5341002273452189  0.27758429280123026  0.9574451604026956  1.0000
  C   C47       1.0  0.034100227400130925  0.22241570658386012  0.4574451604691781  1.0000
  C   C48       1.0  0.46589977254495696  0.7224157072215458  0.04255483946433936  1.0000
  C   C49       1.0  0.08520277273004015  0.5072482584572522  0.9084346641526306  1.0000
  C   C50       1.0  0.41479722707221417  0.007248259072161862  0.5915653355863053  1.0000
  C   C51       1.0  0.9147972271601356  0.4927517415655238  0.0915653357144044  1.0000
  C   C52       1.0  0.5852027728179616  0.9927517409506142  0.4084346642807297  1.0000
  C   C53       1.0  0.25729910781983584  0.5297249997456693  0.5906156812673986  1.0000
  C   C54       1.0  0.24270089215678178  0.029725000360578957  0.9093843189928621  1.0000
  C   C55       1.0  0.7427008920703398  0.4702750002771067  0.4093843185996363  1.0000
  C   C56       1.0  0.7572991079077573  0.9702749996621971  0.0906156813954978  1.0000
  C   C57       1.0  0.12428727346299814  0.6065478544024645  0.9659438822829661  1.0000
  C   C58       1.0  0.3757127269476028  0.10654785376477885  0.5340561174557313  1.0000
  C   C59       1.0  0.8757127270355243  0.39345214562031156  0.034056117583830474  1.0000
  C   C60       1.0  0.6242872729425729  0.8934521462579972  0.46594388241130363  1.0000
  C   C61       1.0  0.20982990766298035  0.6454920925479283  0.9784946559030467  1.0000
  C   C62       1.0  0.2901700923136372  0.14549209316283795  0.5215053443572137  1.0000
  C   C63       1.0  0.7901700922271954  0.3545079074748477  0.021505343963988097  1.0000
  C   C64       1.0  0.7098299077509019  0.8545079068599382  0.47849465603114605  1.0000
  C   C65       1.0  0.9864218222182  0.6973176773295089  0.6071134169349229  1.0000
  C   C66       1.0  0.5135781782254103  0.19731767794441848  0.8928865828653911  1.0000
  C   C67       1.0  0.013578177671975812  0.30268232269326717  0.39288658293211204  1.0000
  C   C68       1.0  0.48642182227311204  0.8026823220783575  0.10711341700140546  1.0000
  C   C69       1.0  0.08954799504814266  0.6597759413080307  0.5173799970778735  1.0000
  C   C70       1.0  0.41045200475411153  0.15977594192294045  0.9826200026610621  1.0000
  C   C71       1.0  0.9104520048420331  0.34022405871474526  0.48262000278916145  1.0000
  C   C72       1.0  0.5895479951360642  0.8402240580998357  0.017379997205972702  1.0000
  C   C73       1.0  0.3405616285781825  0.4964351821143538  0.8339444549050997  1.0000
  C   C74       1.0  0.15943837139843509  0.9964351827520395  0.666055545355161  1.0000
  C   C75       1.0  0.6594383713119931  0.5035648179084223  0.16605554496193525  1.0000
  C   C76       1.0  0.8405616286661042  0.0035648172707366307  0.3339444550331989  1.0000
  N   N1        1.0  0.08987544118498458  0.34422367435346984  0.8056208304061231  1.0000
  N   N2        1.0  0.410124558791633  0.8442236749911555  0.6943791698541376  1.0000
  N   N3        1.0  0.9101245587051912  0.6557763256693062  0.19437916946091188  1.0000
  N   N4        1.0  0.5898754412729061  0.15577632503162053  0.30562083053422223  1.0000
  N   N5        1.0  0.9575439706412907  0.5462919514152578  0.7478707172144929  1.0000
  N   N6        1.0  0.542456029193973  0.04629195077757217  0.7521292825860595  1.0000
  N   N7        1.0  0.04245602924888502  0.45370804860751823  0.252129282652542  1.0000
  N   N8        1.0  0.45754397069620284  0.9537080492452039  0.24787071728097554  1.0000
  N   N9        1.0  0.9841885266841761  0.2524806550401302  0.6867660537302382  1.0000
  N   N10       1.0  0.5158114733254509  0.7524806556778159  0.813233946591639  1.0000
  N   N11       1.0  0.015811473205999623  0.7475193449826459  0.31323394613679667  1.0000
  N   N12       1.0  0.48418852673908824  0.24751934434496023  0.18676605379672082  1.0000
  N   N13       1.0  0.08593754389609981  0.5196889921780968  0.6932387107549242  1.0000
  N   N14       1.0  0.4140624560805178  0.019688991540411156  0.8067612895053364  1.0000
  N   N15       1.0  0.9140624559940759  0.4803110078446792  0.30676128911211076  1.0000
  N   N16       1.0  0.5859375439840213  0.9803110084823649  0.19323871088302336  1.0000
  N   N17       1.0  0.8349350342175391  0.30098761764783255  0.721317973506271  1.0000
  N   N18       1.0  0.6650649656177245  0.800987617032923  0.7786820262942814  1.0000
  N   N19       1.0  0.1650649656726366  0.6990123823749436  0.2786820263607639  1.0000
  N   N20       1.0  0.33493503427245125  0.19901238298985316  0.22131797357275354  1.0000
  O   O1        1.0  0.18033760952176692  0.4791897947794782  0.6059683552257754  1.0000
  O   O2        1.0  0.3196623904548507  0.9791897941645686  0.8940316450344852  1.0000
  O   O3        1.0  0.8196623905427722  0.5208102052432978  0.3940316451625844  1.0000
  O   O4        1.0  0.6803376094353251  0.020810205858207486  0.10596835483254974  1.0000
  O   O5        1.0  0.3266423813991708  0.5352125106863216  0.7123341482859733  1.0000
  O   O6        1.0  0.17335761840308345  0.03521251130123122  0.7876658514529625  1.0000
  O   O7        1.0  0.673357618491005  0.4647874893364545  0.2876658515810616  1.0000
  O   O8        1.0  0.8266423814870923  0.9647874887215449  0.2123341484140725  1.0000
  O   O9        1.0  0.2544125594610365  0.44274975388356685  0.8254762083820605  1.0000
  O   O10       1.0  0.24558744051558107  0.9427497545212525  0.6745237918782001  1.0000
  O   O11       1.0  0.7455874404291393  0.5572502461392091  0.1745237914849745  1.0000
  O   O12       1.0  0.754412559548958  0.05725024550152356  0.3254762085101596  1.0000
  P   P1        1.0  0.8971383280520848  0.18194984575599157  0.6944174070734663  1.0000
  P   P2        1.0  0.602861671957542  0.681949845141082  0.8055825932484111  1.0000
  P   P3        1.0  0.10286167183809088  0.8180501542667844  0.3055825927935687  1.0000
  P   P4        1.0  0.397138328106997  0.3180501548816941  0.19441740713994882  1.0000
  P   P5        1.0  0.024823028764764478  0.41546088850287594  0.732460968921067  1.0000
  P   P6        1.0  0.47517697182019986  0.9154608891405617  0.7675390313389553  1.0000
  P   P7        1.0  0.9751769712997748  0.5845391115199001  0.26753903146729274  1.0000
  P   P8        1.0  0.5248230286783226  0.08453911088221445  0.23246096852784134  1.0000
  P   P9        1.0  0.8640880130829515  0.48843362602006707  0.7429269448375679  1.0000
  P   P10       1.0  0.6359119867523122  0.9884336254051574  0.7570730549629844  1.0000
  P   P11       1.0  0.13591198680722433  0.511566374002709  0.2570730550294669  1.0000
  P   P12       1.0  0.36408801313786354  0.011566374617618594  0.24292694490405056  1.0000
  Cl  Cl1       1.0  0.8333159189788799  0.08787875661525212  0.6008138704749991  1.0000
  Cl  Cl2       1.0  0.666684081030747  0.5878787572529378  0.8991861298468781  1.0000
  Cl  Cl3       1.0  0.16668408108565919  0.912121243407524  0.39918612991336067  1.0000
  Cl  Cl4       1.0  0.33331591903379204  0.4121212427698383  0.1008138705414817  1.0000
  Cl  Cl5       1.0  0.7807349665475463  0.6414773418004499  0.6774094431870157  1.0000
  Cl  Cl6       1.0  0.7192650332877173  0.14147734116276425  0.8225905566135367  1.0000
  Cl  Cl7       1.0  0.2192650333426294  0.35852265822232615  0.32259055668001924  1.0000
  Cl  Cl8       1.0  0.28073496660245845  0.8585226588600118  0.17740944325349822  1.0000
  Cl  Cl9       1.0  0.9151223441351822  0.9739991470523977  0.7552191772103536  1.0000
  Cl  Cl10      1.0  0.5848776557000814  0.47399914641471197  0.7447808225901988  1.0000
  Cl  Cl11      1.0  0.08487765575499345  0.026000852970378425  0.24478082265668136  1.0000
  Cl  Cl12      1.0  0.4151223441900944  0.5260008536080641  0.2552191772768361  1.0000
  Cl  Cl13      1.0  0.8399018540078925  0.5354458541556195  0.8350162438614348  1.0000
  Cl  Cl14      1.0  0.660098145827371  0.03544585477052912  0.6649837559391175  1.0000
  Cl  Cl15      1.0  0.16009814588228322  0.46455414586715654  0.1649837560056001  1.0000
  Cl  Cl16      1.0  0.33990185406280465  0.9645541452522469  0.33501624392791735  1.0000
