data_image0
_chemical_formula_structural       H60C64N20O12S4
_chemical_formula_sum              "H60 C64 N20 O12 S4"
_cell_length_a       9.296734787227916
_cell_length_b       16.13462094120253
_cell_length_c       11.418314238625976
_cell_angle_alpha    90.0
_cell_angle_beta     110.23124060137081
_cell_angle_gamma    90.0

_space_group_name_H-M_alt    "P 1"
_space_group_IT_number       1

loop_
  _space_group_symop_operation_xyz
  'x, y, z'

loop_
  _atom_site_type_symbol
  _atom_site_label
  _atom_site_symmetry_multiplicity
  _atom_site_fract_x
  _atom_site_fract_y
  _atom_site_fract_z
  _atom_site_occupancy
  H   H1        1.0  0.3278638727333157  0.7056234913413135  0.7220866585693461  1.0000
  H   H2        1.0  0.172136127452461  0.20562349137857908  0.777913341468188  1.0000
  H   H3        1.0  0.6721361270094116  0.29437650858415537  0.27791334069136386  1.0000
  H   H4        1.0  0.8278638722924078  0.7943765085468899  0.22208665866890934  1.0000
  H   H5        1.0  0.5560337911570287  0.6739348658778948  0.6663137506849084  1.0000
  H   H6        1.0  0.9439662084592036  0.1739348659151603  0.8336862490825439  1.0000
  H   H7        1.0  0.4439662085878402  0.32606513404757415  0.33368624945218883  1.0000
  H   H8        1.0  0.05603379128566492  0.8260651340103087  0.16631375105455348  1.0000
  H   H9        1.0  0.36769516791950874  0.8154670536077295  0.3265069729844717  1.0000
  H   H10       1.0  0.1323048319518549  0.3154670536449951  0.17349302664588323  1.0000
  H   H11       1.0  0.6323048318253599  0.18453294693752462  0.6734930271526256  1.0000
  H   H12       1.0  0.8676951689372427  0.6845329469002591  0.8265069729359589  1.0000
  H   H13       1.0  0.13919405231997137  0.8486201448361704  0.38273778920059603  1.0000
  H   H14       1.0  0.36080594755353373  0.34862014487343596  0.11726221130614632  1.0000
  H   H15       1.0  0.8608059474248974  0.1513798550892985  0.6172622109365012  1.0000
  H   H16       1.0  0.639194052191335  0.651379855052033  0.8827377888309509  1.0000
  H   H17       1.0  0.3635050836681035  0.6718180625067798  0.2304483708111383  1.0000
  H   H18       1.0  0.1364949162032601  0.17181806254404533  0.2695516288192166  1.0000
  H   H19       1.0  0.6364949160767652  0.3281819374186891  0.7695516293259589  1.0000
  H   H20       1.0  0.8635050835394672  0.8281819373814236  0.7304483704414934  1.0000
  H   H21       1.0  0.0846411988354929  0.49771266020219784  0.12758566513632044  1.0000
  H   H22       1.0  0.41535880103587075  0.9977126601649322  0.37241433449403444  1.0000
  H   H23       1.0  0.9153588009072344  0.5022873397232711  0.8724143341243894  1.0000
  H   H24       1.0  0.584641198708998  0.002287339760536661  0.6275856656430628  1.0000
  H   H25       1.0  0.1900039090251548  0.4856094462059324  0.025942177217394218  1.0000
  H   H26       1.0  0.3099960919925792  0.9856094461686669  0.47405782273409297  1.0000
  H   H27       1.0  0.8099960918660843  0.5143905537195366  0.9740578232408352  1.0000
  H   H28       1.0  0.6900039088986599  0.014390553756802106  0.5259421777241365  1.0000
  H   H29       1.0  0.12894342161563882  0.586562607481663  0.05378651747333364  1.0000
  H   H30       1.0  0.37105657825786625  0.08656260751892854  0.4462134830334087  1.0000
  H   H31       1.0  0.87105657812923  0.4134373924438059  0.9462134826637637  1.0000
  H   H32       1.0  0.6289434214870024  0.9134373924065403  0.5537865171036885  1.0000
  H   H33       1.0  0.08078704228024788  0.7752965964050521  0.6656284329529312  1.0000
  H   H34       1.0  0.4192129567591585  0.27529659644231763  0.8343715667634707  1.0000
  H   H35       1.0  0.9192129574646207  0.22470340352041684  0.3343715671841661  1.0000
  H   H36       1.0  0.5807870429857103  0.7247034034831513  0.1656284333736267  1.0000
  H   H37       1.0  0.005822993591948023  0.8330903501844639  0.527961353162254  1.0000
  H   H38       1.0  0.4941770065938287  0.3330903502217294  0.9720386468752801  1.0000
  H   H39       1.0  0.9941770061529207  0.16690964974100506  0.4720386469748433  1.0000
  H   H40       1.0  0.5058229931510401  0.6669096497037396  0.027961353261817232  1.0000
  H   H41       1.0  0.7310106937376493  0.5870717585816447  0.5095365047739416  1.0000
  H   H42       1.0  0.7689893070249534  0.08707175861891017  0.9904634953146428  1.0000
  H   H43       1.0  0.26898930715358976  0.4129282413438243  0.4904634956842879  1.0000
  H   H44       1.0  0.23101069386414425  0.912928241926344  0.009536504267199312  1.0000
  H   H45       1.0  0.007577786419000072  0.6300584263519944  0.6881620436419568  1.0000
  H   H46       1.0  0.4924222137667766  0.13005842638925985  0.8118379563955772  1.0000
  H   H47       1.0  0.9924222133237272  0.3699415735734746  0.3118379556187531  1.0000
  H   H48       1.0  0.5075777871244624  0.869941573536209  0.18816204406265233  1.0000
  H   H49       1.0  0.23110017628482973  0.39089687343655277  0.767593067604962  1.0000
  H   H50       1.0  0.26889982275457663  0.8908968733992874  0.7324069321114398  1.0000
  H   H51       1.0  0.7688998234578975  0.6091031264889161  0.23240693165574794  1.0000
  H   H52       1.0  0.7311001769902922  0.10910312652618166  0.26759306802565747  1.0000
  H   H53       1.0  0.985244153360475  0.3276477395573691  0.6241125428155031  1.0000
  H   H54       1.0  0.5147558462557575  0.8276477395201035  0.8758874569519491  1.0000
  H   H55       1.0  0.014755846384393841  0.6723522603680998  0.3758874573215942  1.0000
  H   H56       1.0  0.4852441534869698  0.1723522604053654  0.12411254230876079  1.0000
  H   H57       1.0  0.7618398704347673  0.4222453024974652  0.5191141122999461  1.0000
  H   H58       1.0  0.7381601303278355  0.9222453024601996  0.9808858877886384  1.0000
  H   H59       1.0  0.23816013045647177  0.5777546974280037  0.4808858881582835  1.0000
  H   H60       1.0  0.2618398705612623  0.07775469746526921  0.01911411179320371  1.0000
  C   C1        1.0  0.2172695809706205  0.7800455285478788  0.5565429185219105  1.0000
  C   C2        1.0  0.28273041806878585  0.28004552858514425  0.9434570811944913  1.0000
  C   C3        1.0  0.7827304187742482  0.21995447137759025  0.4434570816151868  1.0000
  C   C4        1.0  0.7172695816739414  0.7199544713403246  0.05654291806621862  1.0000
  C   C5        1.0  0.3374606297502283  0.7302807226112505  0.6361976739196001  1.0000
  C   C6        1.0  0.1625393704355484  0.23028072264851612  0.863802326117934  1.0000
  C   C7        1.0  0.6625393699946405  0.26971927731421835  0.3638023262174972  1.0000
  C   C8        1.0  0.8374606293093204  0.7697192772769529  0.1361976740191634  1.0000
  C   C9        1.0  0.4657026112782419  0.7130970161572621  0.6054874372517313  1.0000
  C   C10       1.0  0.034297388907534775  0.2130970161945276  0.8945125627858028  1.0000
  C   C11       1.0  0.5342973896129971  0.2869029837682069  0.39451256320649836  1.0000
  C   C12       1.0  0.9657026108373341  0.7869029837309414  0.1054874373512945  1.0000
  C   C13       1.0  0.47800467982500794  0.7446512108207318  0.49468887349508056  1.0000
  C   C14       1.0  0.021995320046355724  0.24465121085799735  0.0053111261352743145  1.0000
  C   C15       1.0  0.5219953199198608  0.2553487891047371  0.5053111266420167  1.0000
  C   C16       1.0  0.9780046796963715  0.7553487890674715  0.9946888731254356  1.0000
  C   C17       1.0  0.359231562924588  0.7926534435860636  0.41365310618502016  1.0000
  C   C18       1.0  0.14076843694677563  0.29265344362332907  0.08634689344533479  1.0000
  C   C19       1.0  0.6407684368202807  0.20734655633940538  0.5863468939520772  1.0000
  C   C20       1.0  0.8592315627959517  0.7073465563021398  0.9136531058153751  1.0000
  C   C21       1.0  0.23088847608238594  0.8104300409443294  0.4442923431376585  1.0000
  C   C22       1.0  0.2691115237911192  0.3104300403618096  0.055707657369083875  1.0000
  C   C23       1.0  0.7691115236624829  0.18956995960092485  0.5557076569994388  1.0000
  C   C24       1.0  0.7308884759537496  0.6895699595636593  0.9442923427680133  1.0000
  C   C25       1.0  0.5244646592789001  0.5768927050669383  0.35557157542797785  1.0000
  C   C26       1.0  0.9755353411692896  0.07689270510420397  0.14442842425342753  1.0000
  C   C27       1.0  0.47553534046382717  0.4231072948585305  0.6444284238327319  1.0000
  C   C28       1.0  0.024464659721949493  0.923107294821265  0.8555715762048021  1.0000
  C   C29       1.0  0.3944632276608954  0.608292301738358  0.2578277138151989  1.0000
  C   C30       1.0  0.1055367722126097  0.10829230177562357  0.24217228669154345  1.0000
  C   C31       1.0  0.6055367720839734  0.39170769818711093  0.7421722863218985  1.0000
  C   C32       1.0  0.8944632275322592  0.8917076981498454  0.7578277134455538  1.0000
  C   C33       1.0  0.3166945689047923  0.5389239562359329  0.2023708751554998  1.0000
  C   C34       1.0  0.1833054309687128  0.03892395627319849  0.2976291253512426  1.0000
  C   C35       1.0  0.6833054308400764  0.461076043689536  0.7976291249815974  1.0000
  C   C36       1.0  0.816694568776156  0.9610760436522705  0.7023708747858546  1.0000
  C   C37       1.0  0.17213983624268855  0.5265748517403209  0.09641384150260654  1.0000
  C   C38       1.0  0.3278601636308166  0.02657485177758647  0.4035861590041359  1.0000
  C   C39       1.0  0.8278601635021803  0.47342514818514797  0.9035861586344907  1.0000
  C   C40       1.0  0.6721398361140523  0.9734251481478825  0.5964138411329614  1.0000
  C   C41       1.0  0.007039482371075751  0.5629713287409286  0.6763197967549435  1.0000
  C   C42       1.0  0.4929605178168424  0.0629713287781941  0.8236802041589779  1.0000
  C   C43       1.0  0.992960517373793  0.4370286711845404  0.32368020338215386  1.0000
  C   C44       1.0  0.5070394830743967  0.9370286711472748  0.1763197962992515  1.0000
  C   C45       1.0  0.13711335143734701  0.5149834787120023  0.7393195608298118  1.0000
  C   C46       1.0  0.36288664874842974  0.01498347874926784  0.7606804392077222  1.0000
  C   C47       1.0  0.8628866483053803  0.4850165212134666  0.2606804384308981  1.0000
  C   C48       1.0  0.6371133509964391  0.9850165211762011  0.23931956092937512  1.0000
  C   C49       1.0  0.13081979048716286  0.4287737403444934  0.720358847461242  1.0000
  C   C50       1.0  0.3691802096986138  0.9287737403072279  0.7796411525762921  1.0000
  C   C51       1.0  0.8691802104040762  0.5712262595809755  0.27964115299698755  1.0000
  C   C52       1.0  0.6308197900441135  0.07122625961824104  0.22035884668441785  1.0000
  C   C53       1.0  0.9951184650378777  0.3941325249086418  0.6411329537632191  1.0000
  C   C54       1.0  0.5048815345783547  0.8941325248713763  0.8588670460042331  1.0000
  C   C55       1.0  0.0048815347048495415  0.6058674750168271  0.35886704549749077  1.0000
  C   C56       1.0  0.49511846516651403  0.10586747505409266  0.1411329541328641  1.0000
  C   C57       1.0  0.8709145226955229  0.44603797549542096  0.5828137975786656  1.0000
  C   C58       1.0  0.629085476922851  0.9460379754581554  0.9171862030651742  1.0000
  C   C59       1.0  0.1290854770493458  0.553962024430048  0.41718620255843175  1.0000
  C   C60       1.0  0.3709145228220178  0.05396202446731351  0.08281379707192318  1.0000
  C   C61       1.0  0.27126588113622674  0.5534725304389105  0.8227283487906749  1.0000
  C   C62       1.0  0.2287341179031796  0.05347253047617601  0.6772716509257268  1.0000
  C   C63       1.0  0.728734118608642  0.44652746948655847  0.17727165134642234  1.0000
  C   C64       1.0  0.7712658818416891  0.9465274694492929  0.3227283492113705  1.0000
  N   N1        1.0  0.09301581907411133  0.7991225989743662  0.5873115200092559  1.0000
  N   N2        1.0  0.406984179965295  0.29912259901163174  0.912688479707146  1.0000
  N   N3        1.0  0.906984180668616  0.20087740095110276  0.41268847925145397  1.0000
  N   N4        1.0  0.5930158197795737  0.7008774009138372  0.08731152042995145  1.0000
  N   N5        1.0  0.6427211520716203  0.6205398587600027  0.44028605025863876  1.0000
  N   N6        1.0  0.8572788472323405  0.12053985879726822  0.0597139499780218  1.0000
  N   N7        1.0  0.35727884767324847  0.3794601411654662  0.5597139498784585  1.0000
  N   N8        1.0  0.14272115251252823  0.8794601411282007  0.9402860501590754  1.0000
  N   N9        1.0  0.5265013185022948  0.4945627479616062  0.3600602889378215  1.0000
  N   N10       1.0  0.9734986807995246  0.9945627479243406  0.1399397104224517  1.0000
  N   N11       1.0  0.47349868124257405  0.5054372519638627  0.6399397111992758  1.0000
  N   N12       1.0  0.02650131894320267  0.005437252001128298  0.8600602888382581  1.0000
  N   N13       1.0  0.8778092503913976  0.5286725744028701  0.6000196992055962  1.0000
  N   N14       1.0  0.6221907503712052  0.028672574440135584  0.8999803008829883  1.0000
  N   N15       1.0  0.1221907504998415  0.4713274255225989  0.3999803012526334  1.0000
  N   N16       1.0  0.37780924937152216  0.9713274254853334  0.10001969837772155  1.0000
  N   N17       1.0  0.37849690125944396  0.5856651249778738  0.8934586546342786  1.0000
  N   N18       1.0  0.12150309892633268  0.08566512501513934  0.6065413454032552  1.0000
  N   N19       1.0  0.6215030984854247  0.41433487494759513  0.1065413455028185  1.0000
  N   N20       1.0  0.878496900818536  0.9143348755301148  0.39345865473384206  1.0000
  O   O1        1.0  0.6248539507897732  0.7622062386724671  0.34126984943849176  1.0000
  O   O2        1.0  0.875146049660558  0.26220623870973253  0.15873015111930106  1.0000
  O   O3        1.0  0.37514604895509557  0.23779376187278717  0.6587301506986055  1.0000
  O   O4        1.0  0.12485395008431081  0.7377937618355217  0.8412698490177963  1.0000
  O   O5        1.0  0.7787926625451695  0.7361357148260822  0.5653840382230143  1.0000
  O   O6        1.0  0.7212073370710628  0.23613571486334772  0.9346159615444379  1.0000
  O   O7        1.0  0.22120733719969923  0.263864285719172  0.434615961914083  1.0000
  O   O8        1.0  0.2787926626716644  0.7638642856819065  0.06538403771627194  1.0000
  O   O9        1.0  0.3925571009886388  0.4702358101655239  0.2612804746750864  1.0000
  O   O10       1.0  0.10744290003123669  0.9702358101282583  0.23871952615278816  1.0000
  O   O11       1.0  0.6074428999026003  0.529764189759945  0.738719525783143  1.0000
  O   O12       1.0  0.8925571008600024  0.029764189797210548  0.7612804743054414  1.0000
  S   S1        1.0  0.6411396662961062  0.7212959078747727  0.45873066736515355  1.0000
  S   S2        1.0  0.8588603330057132  0.2212959079120383  0.041269331995119556  1.0000
  S   S3        1.0  0.35886033344662116  0.27870409205069613  0.5412693318955563  1.0000
  S   S4        1.0  0.14113966673915557  0.7787040920134306  0.9587306681419776  1.0000
