data_image0
_chemical_formula_structural       H68C70N4O14
_chemical_formula_sum              "H68 C70 N4 O14"
_cell_length_a       7.568341747588152
_cell_length_b       9.034597028248134
_cell_length_c       20.979803501368817
_cell_angle_alpha    82.55176566291047
_cell_angle_beta     86.7974560012642
_cell_angle_gamma    80.75226558531564

_space_group_name_H-M_alt    "P 1"
_space_group_IT_number       1

loop_
  _space_group_symop_operation_xyz
  'x, y, z'

loop_
  _atom_site_type_symbol
  _atom_site_label
  _atom_site_symmetry_multiplicity
  _atom_site_fract_x
  _atom_site_fract_y
  _atom_site_fract_z
  _atom_site_occupancy
  H   H1        1.0  0.7241090890096943  0.013782944814571879  0.006566608525161558  1.0000
  H   H2        1.0  0.27589091122808757  0.9862170550140258  0.9934333916046738  1.0000
  H   H3        1.0  0.6456419298093795  0.9145678315088956  0.9499021003579554  1.0000
  H   H4        1.0  0.3543580691063875  0.0854321683125488  0.050097899800130706  1.0000
  H   H5        1.0  0.5538045814006165  0.246852296665145  0.9636410091724988  1.0000
  H   H6        1.0  0.4461954188371654  0.7531477031634525  0.03635899095733635  1.0000
  H   H7        1.0  0.43057969230030285  0.13915265871311966  0.9242056096663823  1.0000
  H   H8        1.0  0.569420307937479  0.8608473411154779  0.07579439046345296  1.0000
  H   H9        1.0  0.5870872661789766  0.19156675570197232  0.8241685283109963  1.0000
  H   H10       1.0  0.4129127340563476  0.8084332441219287  0.17583147134250737  1.0000
  H   H11       1.0  0.6497161963815451  0.34384822042258667  0.8593374178919488  1.0000
  H   H12       1.0  0.35028380385623675  0.656151779406011  0.14066258223788652  1.0000
  H   H13       1.0  0.10048707570051929  0.1271485093410618  0.8343430974651135  1.0000
  H   H14       1.0  0.8995129245372627  0.8728514904875356  0.16565690266472177  1.0000
  H   H15       1.0  0.9613586168786037  0.30100451625476066  0.8081967281340855  1.0000
  H   H16       1.0  0.03864138335917824  0.6989954835738369  0.19180327199574984  1.0000
  H   H17       1.0  0.9422927157371415  0.13528762269882644  0.7730238410567509  1.0000
  H   H18       1.0  0.05770728317616791  0.8647123771179216  0.22697615862500367  1.0000
  H   H19       1.0  0.3074665667707493  0.8731231567584353  0.53846988403663  1.0000
  H   H20       1.0  0.6925334334645749  0.12687684306546573  0.4615301156168737  1.0000
  H   H21       1.0  0.5702734006240957  0.6952796099358953  0.7121237619552017  1.0000
  H   H22       1.0  0.42972659961122855  0.3047203898880056  0.287876237698302  1.0000
  H   H23       1.0  0.4682773602662963  0.396717217659  0.5779761225828696  1.0000
  H   H24       1.0  0.531722639755457  0.6032827832994976  0.4220238774862713  1.0000
  H   H25       1.0  0.32104436750570164  0.6303598339261367  0.5078554158379892  1.0000
  H   H26       1.0  0.6789556314100653  0.3696401658953078  0.49214458432009694  1.0000
  H   H27       1.0  0.280723949981873  0.9850939066370927  0.6671896418306976  1.0000
  H   H28       1.0  0.7192760502559089  0.014906093191504719  0.3328103582991377  1.0000
  H   H29       1.0  0.4078192217274354  0.03589646214077219  0.5965070922122553  1.0000
  H   H30       1.0  0.5921807785103466  0.9641035376878253  0.4034929079175799  1.0000
  H   H31       1.0  0.5170673249336046  0.9751702283053525  0.6708209754994297  1.0000
  H   H32       1.0  0.48293267530417744  0.02482977152324513  0.32917902463040566  1.0000
  H   H33       1.0  0.6345636737022169  0.2912725545597977  0.6725387958391924  1.0000
  H   H34       1.0  0.3654363265355651  0.7087274452687998  0.3274612042906429  1.0000
  H   H35       1.0  0.5340760052187072  0.3819585812940188  0.7393478466377527  1.0000
  H   H36       1.0  0.46592399501907467  0.6180414185345787  0.26065215349208254  1.0000
  H   H37       1.0  0.7491009800781862  0.4147543865733946  0.7088006961257256  1.0000
  H   H38       1.0  0.2508990201595957  0.585245613255203  0.29119930400410965  1.0000
  H   H39       1.0  0.13237267746598297  0.9176578971341447  0.35741140885719486  1.0000
  H   H40       1.0  0.8676273227693412  0.08234210268975634  0.6425885907963089  1.0000
  H   H41       1.0  0.14717564993405022  0.2792402043488912  0.4732490229726886  1.0000
  H   H42       1.0  0.852824350087703  0.7207597966096065  0.5267509770964522  1.0000
  H   H43       1.0  0.05696736757957147  0.5551929924307467  0.4589578253572878  1.0000
  H   H44       1.0  0.9430326324421818  0.44480700852775096  0.5410421747118531  1.0000
  H   H45       1.0  0.8979871385400116  0.7867972766226015  0.3983153419879161  1.0000
  H   H46       1.0  0.10201286169531265  0.21320272320129963  0.6016846576655877  1.0000
  H   H47       1.0  0.7819202195018375  0.7731923166648078  0.2900078634444105  1.0000
  H   H48       1.0  0.2180797794139294  0.2268076831566367  0.7099921367136757  1.0000
  H   H49       1.0  0.8275134828595245  0.5343661254714057  0.2431837182145522  1.0000
  H   H50       1.0  0.17248651737825735  0.4656338743571919  0.7568162819152829  1.0000
  H   H51       1.0  0.9452419351198434  0.12998328587287272  0.22538781121534981  1.0000
  H   H52       1.0  0.05475806489945192  0.8700167150809285  0.7746121883774595  1.0000
  H   H53       1.0  0.797193102905717  0.3014294342737551  0.22494850867213123  1.0000
  H   H54       1.0  0.20280689601005011  0.6985705655476893  0.775051491485955  1.0000
  H   H55       1.0  0.7766153167754393  0.5932673207258052  0.10862305186746532  1.0000
  H   H56       1.0  0.22338468346234266  0.40673267910279226  0.8913769482623699  1.0000
  H   H57       1.0  0.33637078969369955  0.5135679847807186  0.03733053667643033  1.0000
  H   H58       1.0  0.6636292105440823  0.4864320150478789  0.962669463453405  1.0000
  H   H59       1.0  0.6019838553953263  0.33214190201599225  0.06817533794148467  1.0000
  H   H60       1.0  0.398016144626427  0.6678580989425053  0.9318246621276564  1.0000
  H   H61       1.0  0.7433815874562293  0.1026697959436501  0.13429640734941725  1.0000
  H   H62       1.0  0.2566184114570801  0.8973302038730979  0.8657035923323372  1.0000
  H   H63       1.0  0.5613669566736413  0.9734679529275689  0.22154335675191655  1.0000
  H   H64       1.0  0.438633043561683  0.026532046896332026  0.778456642901587  1.0000
  H   H65       1.0  0.24479280242369134  0.07077465683592053  0.24154460863188865  1.0000
  H   H66       1.0  0.7552071978140906  0.9292253429926769  0.7584553914979467  1.0000
  H   H67       1.0  0.04128865372375725  0.8048466518639256  0.9694889453968778  1.0000
  H   H68       1.0  0.9587113449735234  0.1951533490827225  0.030511054224182352  1.0000
  C   C1        1.0  0.8626193899241863  0.027664525593106205  0.9150699805252739  1.0000
  C   C2        1.0  0.13738061031359544  0.9723354742354915  0.08493001960456135  1.0000
  C   C3        1.0  0.6938230914036776  0.02023620175830732  0.9557128414105224  1.0000
  C   C4        1.0  0.3061769075096317  0.9797637980584406  0.044287158271232197  1.0000
  C   C5        1.0  0.565519504857934  0.1620348698912761  0.930150899411689  1.0000
  C   C6        1.0  0.43448049516136156  0.837965131062525  0.06984910018112031  1.0000
  C   C7        1.0  0.6513845929107926  0.22095030122176024  0.8656540161507615  1.0000
  C   C8        1.0  0.348615405786488  0.7790496997248879  0.1343459834702986  1.0000
  C   C9        1.0  0.9671805770846971  0.17822954332872354  0.8178611619753919  1.0000
  C   C10       1.0  0.032819423153084885  0.821770456499874  0.1821388381544434  1.0000
  C   C11       1.0  0.4338195888566419  0.7978209453092422  0.6270501808728461  1.0000
  C   C12       1.0  0.5661804113811402  0.20217905451935528  0.3729498192569891  1.0000
  C   C13       1.0  0.5160279198601366  0.674948187944492  0.6675812706979329  1.0000
  C   C14       1.0  0.48397208016161675  0.3250518130140056  0.33241872937120787  1.0000
  C   C15       1.0  0.5310357083754732  0.5280931048663482  0.650931826093561  1.0000
  C   C16       1.0  0.4689642918623088  0.4719068949622494  0.3490681740362742  1.0000
  C   C17       1.0  0.4611691697951727  0.5088337233578188  0.5924636449776707  1.0000
  C   C18       1.0  0.5388308302265804  0.49116627760067877  0.40753635509147024  1.0000
  C   C19       1.0  0.3798124130833492  0.6340163819256207  0.5537531100584402  1.0000
  C   C20       1.0  0.6201875871544328  0.36598361790297673  0.4462468900713951  1.0000
  C   C21       1.0  0.4097940080219475  0.9578135542670323  0.6411061068085377  1.0000
  C   C22       1.0  0.5902059922158345  0.04218644556156519  0.3588938933212975  1.0000
  C   C23       1.0  0.6173411357109982  0.39588859646679103  0.6949628609420366  1.0000
  C   C24       1.0  0.38265886320476894  0.6041114033546535  0.3050371392160496  1.0000
  C   C25       1.0  0.05822364341175598  0.12936685686894056  0.3393834911941368  1.0000
  C   C26       1.0  0.9417763568260261  0.870633142959657  0.6606165089356985  1.0000
  C   C27       1.0  0.11475496283358592  0.1373118507816352  0.4028570101458808  1.0000
  C   C28       1.0  0.8852450360821812  0.8626881490398094  0.5971429900122053  1.0000
  C   C29       1.0  0.10084457377641658  0.27563910852223544  0.4253063143280843  1.0000
  C   C30       1.0  0.8991554264613654  0.7243608913063622  0.574693685801751  1.0000
  C   C31       1.0  0.025018251274812144  0.4094847691880614  0.38795103125879693  1.0000
  C   C32       1.0  0.9749817489629696  0.5905152306405361  0.6120489688710383  1.0000
  C   C33       1.0  0.0029255896033310923  0.5508324364643009  0.4122873791315983  1.0000
  C   C34       1.0  0.9970744106319929  0.4491675633596002  0.5877126205219054  1.0000
  C   C35       1.0  0.9153579733636361  0.6799019219082495  0.3782960164340582  1.0000
  C   C36       1.0  0.08464202687168805  0.3200980779156516  0.6217039832194455  1.0000
  C   C37       1.0  0.8515721274837371  0.6713212760629927  0.31709589751222694  1.0000
  C   C38       1.0  0.14842787275158706  0.3286787237609083  0.6829041021412767  1.0000
  C   C39       1.0  0.8780734256894399  0.5369877298151884  0.29051452673055883  1.0000
  C   C40       1.0  0.12192657433231334  0.463012271143309  0.7094854733385821  1.0000
  C   C41       1.0  0.9652811984261638  0.4011079720857164  0.3247802449252364  1.0000
  C   C42       1.0  0.03471880048714551  0.5988920277310316  0.6752197547565182  1.0000
  C   C43       1.0  0.9899591409013879  0.2596935856421929  0.29938314140242744  1.0000
  C   C44       1.0  0.010040859336393997  0.7403064141864046  0.7006168587274079  1.0000
  C   C45       1.0  0.19201204179002299  0.9972857985458871  0.44444094234443604  1.0000
  C   C46       1.0  0.8079879571232863  0.0027142012708609945  0.5555590573373186  1.0000
  C   C47       1.0  0.9376862651216099  0.24981795533008025  0.23140903349401457  1.0000
  C   C48       1.0  0.062313734900143296  0.7501820456284174  0.7685909665751264  1.0000
  C   C49       1.0  0.050933791406341807  0.3231779434886148  0.17792515654048557  1.0000
  C   C50       1.0  0.94906620883144  0.6768220563399828  0.8220748435893498  1.0000
  C   C51       1.0  0.9743208243028193  0.44739572350105755  0.13631078550019282  1.0000
  C   C52       1.0  0.025679175934962512  0.55260427632754  0.8636892146296425  1.0000
  C   C53       1.0  0.07931202230491131  0.5172664956383654  0.08519268768712566  1.0000
  C   C54       1.0  0.9206879779328707  0.4827335041902321  0.9148073124427095  1.0000
  C   C55       1.0  0.2584341152666928  0.46016102512946083  0.07632739586916974  1.0000
  C   C56       1.0  0.7415658849710891  0.5398389746991368  0.9236726042606654  1.0000
  C   C57       1.0  0.3405219678782941  0.3337193259144048  0.11622230064020737  1.0000
  C   C58       1.0  0.6594780323594879  0.6662806739141928  0.8837776994896279  1.0000
  C   C59       1.0  0.5238155106485949  0.274501825192152  0.10598678609053724  1.0000
  C   C60       1.0  0.47618448958918713  0.7254981746364456  0.8940132140392979  1.0000
  C   C61       1.0  0.6030225436190534  0.14693183964548107  0.14319169064259865  1.0000
  C   C62       1.0  0.3969774566162709  0.8530681601784199  0.8568083090109051  1.0000
  C   C63       1.0  0.49914703709424724  0.07503459305323  0.19213986992246462  1.0000
  C   C64       1.0  0.5008529631410769  0.924965406770671  0.807860129731039  1.0000
  C   C65       1.0  0.3209867030459038  0.13051928411301456  0.20398638159521432  1.0000
  C   C66       1.0  0.6790132969758493  0.8694807168454831  0.7960136184739266  1.0000
  C   C67       1.0  0.23489989707119252  0.2629951270567665  0.167043642599659  1.0000
  C   C68       1.0  0.7651001031665894  0.737004872771831  0.8329563575301763  1.0000
  C   C69       1.0  0.9957195172163754  0.6504236702831524  0.04294875549867437  1.0000
  C   C70       1.0  0.00428048302140654  0.3495763295454451  0.9570512446311609  1.0000
  N   N1        1.0  0.8357354827365682  0.1433059073046318  0.8677759338095793  1.0000
  N   N2        1.0  0.1642645175012137  0.8566940925239658  0.1322240663202559  1.0000
  N   N3        1.0  0.3689704240350907  0.7730714546434521  0.5713673496323654  1.0000
  N   N4        1.0  0.6310295759866624  0.22692854631504553  0.42863265043677545  1.0000
  O   O1        1.0  0.009563624310499409  0.9407778135319373  0.9223260675309316  1.0000
  O   O2        1.0  0.9904363759272826  0.05922218629665991  0.07767393259890369  1.0000
  O   O3        1.0  0.07376809862082487  0.9912504125054579  0.31882347534513383  1.0000
  O   O4        1.0  0.9262319016169571  0.008749587323139565  0.6811765247847014  1.0000
  O   O5        1.0  0.21183930678556362  0.8706214499904436  0.42136764568701485  1.0000
  O   O6        1.0  0.7881606934522184  0.129378549838154  0.5786323544428205  1.0000
  O   O7        1.0  0.23603450338376247  0.01230126924671381  0.5006564292993109  1.0000
  O   O8        1.0  0.7639654968540195  0.9876987305818837  0.49934357083052433  1.0000
  O   O9        1.0  0.7983945143966588  0.5042880892846985  0.14388588509201944  1.0000
  O   O10       1.0  0.20160548583866533  0.49571191053920255  0.8561141145614845  1.0000
  O   O11       1.0  0.833841104329792  0.7051584103417032  0.0503464323868842  1.0000
  O   O12       1.0  0.1661588959055323  0.2948415894821978  0.9496535672666194  1.0000
  O   O13       1.0  0.10236448690258464  0.7068798821164075  0.9976978423944962  1.0000
  O   O14       1.0  0.8976355133327395  0.2931201177074935  0.002302157259007455  1.0000
