data_image0
_chemical_formula_structural       H60C68N20O36S4
_chemical_formula_sum              "H60 C68 N20 O36 S4"
_cell_length_a       10.82543029190955
_cell_length_b       14.69446483474641
_cell_length_c       12.441318566461012
_cell_angle_alpha    90.0
_cell_angle_beta     91.81865339587371
_cell_angle_gamma    90.0

_space_group_name_H-M_alt    "P 1"
_space_group_IT_number       1

loop_
  _space_group_symop_operation_xyz
  'x, y, z'

loop_
  _atom_site_type_symbol
  _atom_site_label
  _atom_site_symmetry_multiplicity
  _atom_site_fract_x
  _atom_site_fract_y
  _atom_site_fract_z
  _atom_site_occupancy
  H   H1        1.0  0.6050919480216745  0.4616613416202083  0.4380869504145798  1.0000
  H   H2        1.0  0.39490805225773123  0.961661341798969  0.061913049830957155  1.0000
  H   H3        1.0  0.39490805147896146  0.538338658056785  0.5619130492547836  1.0000
  H   H4        1.0  0.6050919481685991  0.03833865787802419  0.9380869506664544  1.0000
  H   H5        1.0  0.5831111747414024  0.5491300398310323  0.27086135272222656  1.0000
  H   H6        1.0  0.4168888246137882  0.049130040332799836  0.22913864749907525  1.0000
  H   H7        1.0  0.4168888247592337  0.45086995984596095  0.7291386469471369  1.0000
  H   H8        1.0  0.583111174888327  0.9508699600247218  0.7708613529741014  1.0000
  H   H9        1.0  0.9750334564059601  0.5182923492382793  0.2196647240780641  1.0000
  H   H10       1.0  0.024966543873445848  0.01829234905951842  0.28033527616747284  1.0000
  H   H11       1.0  0.024966544020370404  0.48170765043871405  0.7803352764193476  1.0000
  H   H12       1.0  0.9750334565514056  0.9817076506174748  0.7196647235261258  1.0000
  H   H13       1.0  0.9958488364047244  0.42944198519420945  0.38853296173790197  1.0000
  H   H14       1.0  0.004151163873202193  0.9294419853729703  0.11146703770382191  1.0000
  H   H15       1.0  0.004151163095911582  0.5705580144827839  0.6114670379314615  1.0000
  H   H16       1.0  0.9958488365516491  0.07055801430402299  0.8885329619897767  1.0000
  H   H17       1.0  0.8946627657510192  0.4557424135763411  0.9809513004027998  1.0000
  H   H18       1.0  0.10533723389654151  0.9557424137551019  0.5190486995184384  1.0000
  H   H19       1.0  0.10533723374961694  0.5442575861006522  0.019048699266563558  1.0000
  H   H20       1.0  0.8946627656055739  0.04425758660241969  0.48095130095473826  1.0000
  H   H21       1.0  0.8037546551963273  0.2278172990746942  0.831568206383947  1.0000
  H   H22       1.0  0.19624534537544863  0.727817299253455  0.6684317935615264  1.0000
  H   H23       1.0  0.19624534522852405  0.7721827012828274  0.16843179330965152  1.0000
  H   H24       1.0  0.8037546550494028  0.2721827011040666  0.3315682061320723  1.0000
  H   H25       1.0  0.9405147545838137  0.29107728101033725  0.8690186054736277  1.0000
  H   H26       1.0  0.05948524598796221  0.7910772811890981  0.6309813944718455  1.0000
  H   H27       1.0  0.05948524584103765  0.708922718666656  0.13098139421997074  1.0000
  H   H28       1.0  0.9405147544368891  0.20892271916842356  0.3690186052217531  1.0000
  H   H29       1.0  0.8565396006068707  0.315493898017825  0.7476652624230675  1.0000
  H   H30       1.0  0.14346039996490512  0.8154938975160575  0.7523347375224059  1.0000
  H   H31       1.0  0.14346039981945966  0.6845061023396966  0.2523347380743442  1.0000
  H   H32       1.0  0.8565396004599461  0.18450610216093583  0.2476652621711927  1.0000
  H   H33       1.0  0.8902650323392841  0.3517628323406174  0.5303647689237897  1.0000
  H   H34       1.0  0.10973496730827655  0.8517628325193782  0.9696352309974484  1.0000
  H   H35       1.0  0.10973496808556717  0.6482371673363759  0.46963523076980884  1.0000
  H   H36       1.0  0.8902650321938387  0.14823716715761504  0.03036476947572812  1.0000
  H   H37       1.0  0.7347874129838488  0.3554265207161682  0.537206418196186  1.0000
  H   H38       1.0  0.265212586663712  0.855426520894929  0.9627935817250522  1.0000
  H   H39       1.0  0.2652125865182665  0.6445734789608251  0.4627935822769905  1.0000
  H   H40       1.0  0.7347874128369242  0.14457347946259264  0.03720641794431127  1.0000
  H   H41       1.0  0.5686240009247383  0.5642850000493466  0.0521646912984126  1.0000
  H   H42       1.0  0.43137599935466747  0.06428499987058575  0.44783530894712437  1.0000
  H   H43       1.0  0.43137599857589776  0.4357149996276467  0.9478353083709508  1.0000
  H   H44       1.0  0.5686240010716629  0.9357149998064075  0.5521646915502874  1.0000
  H   H45       1.0  0.48888587913824877  0.6205158222869949  0.7580992863732077  1.0000
  H   H46       1.0  0.5111141214335271  0.1205158221082341  0.7419007135722657  1.0000
  H   H47       1.0  0.5111141212880816  0.3794841780705267  0.241900714124204  1.0000
  H   H48       1.0  0.4888858789913242  0.8794841782492876  0.258099286121333  1.0000
  H   H49       1.0  0.6582153758648429  0.8204531737346568  0.9702639960200169  1.0000
  H   H50       1.0  0.34178462378271784  0.3204531735558958  0.5297360039012212  1.0000
  H   H51       1.0  0.3417846245600084  0.17954682662286497  0.029736003673581635  1.0000
  H   H52       1.0  0.6582153757193975  0.6795468261210974  0.4702639965719553  1.0000
  H   H53       1.0  0.8860296624246831  0.6395129966066692  0.7891773983998749  1.0000
  H   H54       1.0  0.11397033814709281  0.1395129964279083  0.7108226015455985  1.0000
  H   H55       1.0  0.11397033800164735  0.3604870037508525  0.21082260209753684  1.0000
  H   H56       1.0  0.8860296622777586  0.8604870039296133  0.28917739814800014  1.0000
  H   H57       1.0  0.811726934384298  0.463855505910136  0.6161521374476735  1.0000
  H   H58       1.0  0.18827306618747786  0.9638555060888968  0.8838478624977998  1.0000
  H   H59       1.0  0.18827306604055333  0.5361444937668572  0.3838478622459251  1.0000
  H   H60       1.0  0.8117269342373734  0.03614449358809642  0.11615213719579873  1.0000
  C   C1        1.0  0.8022648184077732  0.43958571085392467  0.4243615412202415  1.0000
  C   C2        1.0  0.19773518094741746  0.9395857110326854  0.07563845900106025  1.0000
  C   C3        1.0  0.19773518109434196  0.5604142888230685  0.575638459252935  1.0000
  C   C4        1.0  0.8022648185532187  0.06041428932483613  0.9243615406683032  1.0000
  C   C5        1.0  0.6859837013935204  0.47377277895402464  0.39045195409960376  1.0000
  C   C6        1.0  0.3140162979601912  0.9737727791327855  0.10954804531788491  1.0000
  C   C7        1.0  0.31401629810711573  0.5262272207229686  0.6095480455697596  1.0000
  C   C8        1.0  0.685983701540445  0.02622722054420779  0.8904519543514786  1.0000
  C   C9        1.0  0.6740793686835708  0.5235417285703936  0.2960304963356921  1.0000
  C   C10       1.0  0.32592063159583506  0.023541728391632842  0.20396950390984483  1.0000
  C   C11       1.0  0.32592063174128055  0.4764582711065996  0.7039695033579065  1.0000
  C   C12       1.0  0.6740793688304954  0.9764582712853603  0.796030496587567  1.0000
  C   C13       1.0  0.7785175262573346  0.53952601262847  0.2349526192434403  1.0000
  C   C14       1.0  0.2214824740220713  0.03952601244970916  0.2650473810020967  1.0000
  C   C15       1.0  0.22148247416899586  0.4604739877290517  0.7650473812539714  1.0000
  C   C16       1.0  0.7785175264027802  0.9604739872272842  0.734952618691502  1.0000
  C   C17       1.0  0.8943688995037213  0.5057292697334388  0.26757657410363983  1.0000
  C   C18       1.0  0.10563110077568463  0.005729269554678061  0.23242342614189712  1.0000
  C   C19       1.0  0.10563110092113008  0.4942707306240827  0.7324234255899588  1.0000
  C   C20       1.0  0.8943688987264307  0.9942707301223153  0.7675765743312793  1.0000
  C   C21       1.0  0.9060240639372462  0.4560286737462286  0.3625430263345222  1.0000
  C   C22       1.0  0.09397593541794431  0.9560286732444611  0.1374569738867796  1.0000
  C   C23       1.0  0.09397593556486887  0.5439713266112931  0.6374569741386543  1.0000
  C   C24       1.0  0.9060240640826918  0.043971326432532216  0.8625430257825839  1.0000
  C   C25       1.0  0.687707769659173  0.4736386318433835  0.9793604492437081  1.0000
  C   C26       1.0  0.31229223091260283  0.9736386320221443  0.5206395507017652  1.0000
  C   C27       1.0  0.31229223076567825  0.5263613678336098  0.02063955044989041  1.0000
  C   C28       1.0  0.6877077695122485  0.02636136833537735  0.47936044899183344  1.0000
  C   C29       1.0  0.8031822721949468  0.43402744990883263  0.9551320228470863  1.0000
  C   C30       1.0  0.1968177283768291  0.9340274494070651  0.5448679770983871  1.0000
  C   C31       1.0  0.19681772823138366  0.565972550448689  0.04486797765032539  1.0000
  C   C32       1.0  0.8031822720480222  0.06597255026992821  0.45513202259521157  1.0000
  C   C33       1.0  0.7730106497494478  0.36200369117367726  0.8899044945443366  1.0000
  C   C34       1.0  0.226989350822328  0.862003691352438  0.6100955054011367  1.0000
  C   C35       1.0  0.2269893506754034  0.637996308503316  0.11009550514926189  1.0000
  C   C36       1.0  0.7730106496040025  0.1379963083245552  0.389904495096275  1.0000
  C   C37       1.0  0.8476363138747358  0.294968504041801  0.8319233303975612  1.0000
  C   C38       1.0  0.15236368669704003  0.7949685042205618  0.6680766695479122  1.0000
  C   C39       1.0  0.15236368655011548  0.7050314956351922  0.16807666929603743  1.0000
  C   C40       1.0  0.8476363137278113  0.20503149613695978  0.33192333014568637  1.0000
  C   C41       1.0  0.6886003407340991  0.6211560402265931  0.7658174349041926  1.0000
  C   C42       1.0  0.31139965891346155  0.12115604072836067  0.7341825650170455  1.0000
  C   C43       1.0  0.31139965876653697  0.37884395945040017  0.23418256476517074  1.0000
  C   C44       1.0  0.6886003415113897  0.878843959629161  0.26581743467655305  1.0000
  C   C45       1.0  0.5717183266420076  0.651935361221702  0.7931975201909424  1.0000
  C   C46       1.0  0.4282816730055532  0.15193536104294122  0.7068024797302959  1.0000
  C   C47       1.0  0.42828167378284376  0.34806463913581953  0.20680247950265618  1.0000
  C   C48       1.0  0.5717183264965621  0.848064638634052  0.29319752074288075  1.0000
  C   C49       1.0  0.5632641260542847  0.7228434359095396  0.866543126368466  1.0000
  C   C50       1.0  0.4367358735932761  0.2228434364113071  0.6334568735527722  1.0000
  C   C51       1.0  0.43673587344635156  0.27715656376745373  0.13345687330089745  1.0000
  C   C52       1.0  0.5632641268330543  0.7771565639462145  0.36654312694463953  1.0000
  C   C53       1.0  0.6665736820629581  0.7656873310142682  0.9124843768633214  1.0000
  C   C54       1.0  0.33342631758460267  0.26568733083550744  0.5875156230579168  1.0000
  C   C55       1.0  0.3334263174376781  0.234312668662725  0.08751562280604198  1.0000
  C   C56       1.0  0.6665736819175125  0.7343126688414858  0.41248437741525984  1.0000
  C   C57       1.0  0.7811956528063626  0.7344161588302062  0.8815213830927416  1.0000
  C   C58       1.0  0.218804346841198  0.23441615865144538  0.6184786168284966  1.0000
  C   C59       1.0  0.21880434669427343  0.2655838415273154  0.11847861657662183  1.0000
  C   C60       1.0  0.7811956535836532  0.7655838417060762  0.381521382865102  1.0000
  C   C61       1.0  0.7945358370668413  0.6626322584389672  0.8098975064423838  1.0000
  C   C62       1.0  0.20546416350493474  0.16263225826020644  0.6901024935030896  1.0000
  C   C63       1.0  0.20546416335801015  0.3373677419185544  0.1901024932512148  1.0000
  C   C64       1.0  0.7945358369199166  0.8373677414167868  0.30989750619050904  1.0000
  C   C65       1.0  0.696620275424229  0.5438012571308387  0.6882595764509739  1.0000
  C   C66       1.0  0.3033797242233317  0.04380125763260622  0.8117404234702644  1.0000
  C   C67       1.0  0.3033797240764071  0.45619874254615456  0.31174042321838963  1.0000
  C   C68       1.0  0.6966202752787835  0.9561987427249153  0.18825957700291215  1.0000
  N   N1        1.0  0.8132770082965505  0.39185761882150033  0.5221026181323549  1.0000
  N   N2        1.0  0.18672299227522546  0.8918576190002612  0.9778973818131184  1.0000
  N   N3        1.0  0.18672299212978  0.6081423815360213  0.47789738236505686  1.0000
  N   N4        1.0  0.8132770081496259  0.10814238135726048  0.022102617880480145  1.0000
  N   N5        1.0  0.6622945311694077  0.5513479082846651  0.03706732810779526  1.0000
  N   N6        1.0  0.33770546818430386  0.051347908105904234  0.46293267130969346  1.0000
  N   N7        1.0  0.33770546833122844  0.4486520920728566  0.9629326715615681  1.0000
  N   N8        1.0  0.6622945313163323  0.948652091571089  0.5370673283596701  1.0000
  N   N9        1.0  0.5936622291775199  0.42806056230958694  0.9333651136970968  1.0000
  N   N10       1.0  0.4063377704700408  0.9280605624883477  0.5666348862241413  1.0000
  N   N11       1.0  0.4063377703231163  0.5719394373674063  0.06663488597226656  1.0000
  N   N12       1.0  0.5936622299548104  0.07193943786917388  0.4333651134694573  1.0000
  N   N13       1.0  0.8916543990342287  0.7781158979647401  0.9282354633390654  1.0000
  N   N14       1.0  0.10834560061333197  0.2781158977859793  0.5717645365821729  1.0000
  N   N15       1.0  0.10834560046640741  0.2218841023927815  0.07176453633029808  1.0000
  N   N16       1.0  0.8916543988887834  0.7218841025715423  0.42823546389100364  1.0000
  N   N17       1.0  0.44090560702027337  0.7532395445819592  0.8983286032186694  1.0000
  N   N18       1.0  0.5590943935515025  0.25323954440319835  0.601671396726804  1.0000
  N   N19       1.0  0.559094393406057  0.2467604557755625  0.10167139727874237  1.0000
  N   N20       1.0  0.44090560687334884  0.7467604559543234  0.39832860296679456  1.0000
  O   O1        1.0  0.6969946548002599  0.6884213446194943  0.14322899230073258  1.0000
  O   O2        1.0  0.3030053454791459  0.18842134512126188  0.3567710079448044  1.0000
  O   O3        1.0  0.30300534562459136  0.31157865505749893  0.8567710073928662  1.0000
  O   O4        1.0  0.6969946549471845  0.8115786552362597  0.6432289925526073  1.0000
  O   O5        1.0  0.8795260156360777  0.6094456722795341  0.06643883309467241  1.0000
  O   O6        1.0  0.12047398464332823  0.10944567278130167  0.43356116715086457  1.0000
  O   O7        1.0  0.12047398479025277  0.39055432739745916  0.9335611674027393  1.0000
  O   O8        1.0  0.8795260157815229  0.8905543275762199  0.5664388325427341  1.0000
  O   O9        1.0  0.6480713301029044  0.35673552041206164  0.8755421161563284  1.0000
  O   O10       1.0  0.35192867046887144  0.8567355205908224  0.624457883789145  1.0000
  O   O11       1.0  0.351928670323426  0.64326447994546  0.12445788434108333  1.0000
  O   O12       1.0  0.6480713299559798  0.1432644797666992  0.3755421159044536  1.0000
  O   O13       1.0  0.8114866091406079  0.514374181367078  0.6761998959537386  1.0000
  O   O14       1.0  0.1885133914311679  0.014374181868845525  0.8238001039917349  1.0000
  O   O15       1.0  0.18851339128424333  0.4856258183099153  0.32380010373986  1.0000
  O   O16       1.0  0.8114866089936834  0.9856258184886761  0.17619989570186378  1.0000
  O   O17       1.0  0.6045229824330187  0.5119107476587332  0.6416267954484414  1.0000
  O   O18       1.0  0.39547701813875713  0.011910747479972478  0.858373204497032  1.0000
  O   O19       1.0  0.3954770179918326  0.48808925269878833  0.3583732042451572  1.0000
  O   O20       1.0  0.6045229822860941  0.9880892521970207  0.1416267951965666  1.0000
  O   O21       1.0  0.9940807020804052  0.7539637921214023  0.8954049346918214  1.0000
  O   O22       1.0  0.005919298491370644  0.25396379262316987  0.604595065253652  1.0000
  O   O23       1.0  0.005919298344446083  0.24603620755559094  0.1045950650017773  1.0000
  O   O24       1.0  0.9940807019349598  0.7460362077343518  0.3954049352437597  1.0000
  O   O25       1.0  0.8778217537230802  0.836983565465945  0.9981838119849006  1.0000
  O   O26       1.0  0.12217824684869567  0.33698356528718426  0.5018161879605729  1.0000
  O   O27       1.0  0.12217824670325023  0.16301643421104822  0.0018161885125112696  1.0000
  O   O28       1.0  0.8778217535761556  0.6630164343898091  0.49818381173302567  1.0000
  O   O29       1.0  0.43707020580720646  0.8137526963026931  0.9680997936235846  1.0000
  O   O30       1.0  0.5629297938403542  0.3137526961239323  0.5319002062976538  1.0000
  O   O31       1.0  0.5629297946191241  0.1862473040548285  0.03190020687382733  1.0000
  O   O32       1.0  0.4370702056602818  0.6862473042335893  0.4680997933717096  1.0000
  O   O33       1.0  0.3482901457656272  0.7176306029917409  0.8549936780344202  1.0000
  O   O34       1.0  0.6517098538819335  0.21763060281298013  0.645006321886818  1.0000
  O   O35       1.0  0.6517098546607031  0.28236939736578065  0.1450063224629915  1.0000
  O   O36       1.0  0.3482901456187027  0.7823693968640132  0.35499367778254554  1.0000
  S   S1        1.0  0.7615994695564575  0.6055444706607825  0.11790706651841924  1.0000
  S   S2        1.0  0.23840053072294828  0.1055444704820218  0.38209293372711767  1.0000
  S   S3        1.0  0.23840053086839372  0.39445552901621067  0.8820929331751793  1.0000
  S   S4        1.0  0.761599469703382  0.8944555291949714  0.6179070667702941  1.0000
