data_image0
_chemical_formula_structural       H18C8N4O4S2
_chemical_formula_sum              "H18 C8 N4 O4 S2"
_cell_length_a       7.116302767136512
_cell_length_b       7.32131239581832
_cell_length_c       8.175087515038639
_cell_angle_alpha    63.322678508946694
_cell_angle_beta     68.53434740818766
_cell_angle_gamma    63.75090432939293

_space_group_name_H-M_alt    "P 1"
_space_group_IT_number       1

loop_
  _space_group_symop_operation_xyz
  'x, y, z'

loop_
  _atom_site_type_symbol
  _atom_site_label
  _atom_site_symmetry_multiplicity
  _atom_site_fract_x
  _atom_site_fract_y
  _atom_site_fract_z
  _atom_site_occupancy
  H   H1        1.0  0.8813090700486278  0.9067761285521788  0.964990466606579  1.0000
  H   H2        1.0  0.1186909294565295  0.09322387162062214  0.03500953385513532  1.0000
  H   H3        1.0  0.6909834423419755  0.7807384596165822  0.027908124367474765  1.0000
  H   H4        1.0  0.30901655716318177  0.21926154055621871  0.9720918760942395  1.0000
  H   H5        1.0  0.44353953563331716  0.7664542553853125  0.3038420659458707  1.0000
  H   H6        1.0  0.5564604653872427  0.23354574477063605  0.6961579340310086  1.0000
  H   H7        1.0  0.43259962168535065  0.8885593119566657  0.4527110978962804  1.0000
  H   H8        1.0  0.5674003778198065  0.11144068821613534  0.5472889025654338  1.0000
  H   H9        1.0  0.8812360683115823  0.41339017306772985  0.2211577857112099  1.0000
  H   H10       1.0  0.11876393119357499  0.5866098271050711  0.7788422147505043  1.0000
  H   H11       1.0  0.04388952482318774  0.16067089299462156  0.3574861252167411  1.0000
  H   H12       1.0  0.9561104751872573  0.839329105567344  0.6425138745003677  1.0000
  H   H13       1.0  0.8403882869135993  0.3476216765197265  0.46617311740048495  1.0000
  H   H14       1.0  0.15961171259155782  0.6523783236530746  0.5338268830612293  1.0000
  H   H15       1.0  0.04116305115135297  0.6102615736705056  0.29644797885268653  1.0000
  H   H16       1.0  0.9588369488735616  0.38973842488052163  0.7035520220873801  1.0000
  H   H17       1.0  0.20655859232908974  0.35251484998324867  0.4238564953564011  1.0000
  H   H18       1.0  0.7934414076813553  0.6474851485787172  0.5761435043607077  1.0000
  C   C1        1.0  0.6661016988039649  0.9166008547559308  0.21108436668921685  1.0000
  C   C2        1.0  0.3338983012064804  0.08339914380603483  0.7889156330278918  1.0000
  C   C3        1.0  0.4218242878323699  0.5145922976424318  0.0902413327751542  1.0000
  C   C4        1.0  0.5781757131737203  0.4854077025244555  0.9097586659787671  1.0000
  C   C5        1.0  0.9623528980663245  0.3336970032494389  0.3388245310758996  1.0000
  C   C6        1.0  0.037647101438832785  0.6663029969233621  0.6611754693858146  1.0000
  C   C7        1.0  0.11769062394391923  0.43817843026637565  0.31063805272716066  1.0000
  C   C8        1.0  0.8823093770766407  0.561821569889573  0.6893619472497187  1.0000
  N   N1        1.0  0.7489170790958979  0.8679352183316118  0.05373325209382116  1.0000
  N   N2        1.0  0.25108292040925934  0.13206478184118914  0.946266748367893  1.0000
  N   N3        1.0  0.500249489530031  0.8533619715589457  0.33133984994220744  1.0000
  N   N4        1.0  0.4997505099751261  0.14663802861385525  0.6686601505195068  1.0000
  O   O1        1.0  0.2736461239577819  0.4256045834336336  0.13695896375400507  1.0000
  O   O2        1.0  0.7263538755473754  0.5743954167391673  0.8630410367077093  1.0000
  O   O3        1.0  0.43401451213076736  0.6076160159659023  0.1767278224155495  1.0000
  O   O4        1.0  0.5659854873743899  0.3923839842068987  0.8232721780461649  1.0000
  S   S1        1.0  0.771223406919907  0.054369664597710914  0.2560267920673833  1.0000
  S   S2        1.0  0.22877659257078073  0.9456303355860286  0.743973207171373  1.0000
