data_image0
_chemical_formula_structural       H112C112N16O32
_chemical_formula_sum              "H112 C112 N16 O32"
_cell_length_a       19.894687751998006
_cell_length_b       5.194371112275084
_cell_length_c       24.906925316802134
_cell_angle_alpha    90.0
_cell_angle_beta     92.23718142914043
_cell_angle_gamma    90.0

_space_group_name_H-M_alt    "P 1"
_space_group_IT_number       1

loop_
  _space_group_symop_operation_xyz
  'x, y, z'

loop_
  _atom_site_type_symbol
  _atom_site_label
  _atom_site_symmetry_multiplicity
  _atom_site_fract_x
  _atom_site_fract_y
  _atom_site_fract_z
  _atom_site_occupancy
  H   H1        1.0  0.9447558363236237  0.49116474446173314  0.4715097941374662  1.0000
  H   H2        1.0  0.5552441637721179  0.49116474446173314  0.5284902057409063  1.0000
  H   H3        1.0  0.4447558362931088  0.9911647432801577  0.9715097944363247  1.0000
  H   H4        1.0  0.05524416333736462  0.9911647432801577  0.02849020587761486  1.0000
  H   H5        1.0  0.05524416353948385  0.5088352570254375  0.5284902059586899  1.0000
  H   H6        1.0  0.4447558365940195  0.5088352570254375  0.47150979437120516  1.0000
  H   H7        1.0  0.5552441635699986  0.008835256281852194  0.028490205659831323  1.0000
  H   H8        1.0  0.9447558365257429  0.008835256281852194  0.9715097942185412  1.0000
  H   H9        1.0  0.8719006473670614  0.291822764919097  0.46534353976537063  1.0000
  H   H10       1.0  0.6280993522256502  0.291822764919097  0.5346564600970464  1.0000
  H   H11       1.0  0.37190064733688566  0.7918227656626823  0.9653435396627451  1.0000
  H   H12       1.0  0.12809935229392685  0.7918227656626823  0.03465646024971042  1.0000
  H   H13       1.0  0.1280993524960461  0.7081772346429129  0.5346564603307854  1.0000
  H   H14       1.0  0.37190064763779646  0.7081772346429129  0.4653435395976256  1.0000
  H   H15       1.0  0.6280993525262218  0.20817723582448838  0.03465646043341098  1.0000
  H   H16       1.0  0.8719006475691806  0.20817723582448838  0.9653435398464458  1.0000
  H   H17       1.0  0.9907266627127541  0.8794020491152945  0.6007755553249956  1.0000
  H   H18       1.0  0.5092733373829873  0.8794020491152945  0.39922444455337697  1.0000
  H   H19       1.0  0.4907266627810309  0.37940204837170916  0.10077555547765962  1.0000
  H   H20       1.0  0.00927333735247252  0.37940204837170916  0.8992244448522354  1.0000
  H   H21       1.0  0.00927333715035328  0.12059795044671533  0.3992244447711604  1.0000
  H   H22       1.0  0.4907266629834892  0.12059795044671533  0.6007755551572506  1.0000
  H   H23       1.0  0.5092733370820766  0.6205979511903006  0.8992244446184965  1.0000
  H   H24       1.0  0.990726662510635  0.6205979511903006  0.10077555524392058  1.0000
  H   H25       1.0  0.9263206605435719  0.53005501156695  0.6464547983508526  1.0000
  H   H26       1.0  0.5736793395521698  0.53005501156695  0.35354520152751995  1.0000
  H   H27       1.0  0.42632066061184853  0.03005501274852546  0.14645479850351661  1.0000
  H   H28       1.0  0.07367933952199407  0.03005501274852546  0.8535452014248944  1.0000
  H   H29       1.0  0.07367933931953569  0.4699449879950599  0.35354520174530346  1.0000
  H   H30       1.0  0.4263206603109377  0.4699449879950599  0.6464547985686361  1.0000
  H   H31       1.0  0.573679339251259  0.9699449887386452  0.8535452015926396  1.0000
  H   H32       1.0  0.9263206603414526  0.9699449887386452  0.1464547982697776  1.0000
  H   H33       1.0  0.7540679643529263  0.6824272724032266  0.5542566630744401  1.0000
  H   H34       1.0  0.7459320357428153  0.6824272724032266  0.4457433368039325  1.0000
  H   H35       1.0  0.25406796391817293  0.1824272735848022  0.05425666321114855  1.0000
  H   H36       1.0  0.24593203571263952  0.1824272735848022  0.9457433367013071  1.0000
  H   H37       1.0  0.24593203601355032  0.31757272715878315  0.4457433366361875  1.0000
  H   H38       1.0  0.2540679641202922  0.31757272715878315  0.5542566632922236  1.0000
  H   H39       1.0  0.7459320359449345  0.8175727279023685  0.9457433368850076  1.0000
  H   H40       1.0  0.754067964150468  0.8175727279023685  0.05425666339484911  1.0000
  H   H41       1.0  0.8102487505126377  0.04140529726336775  0.5050301778039947  1.0000
  H   H42       1.0  0.6897512495831037  0.04140529726336775  0.4949698220743778  1.0000
  H   H43       1.0  0.3102487505809145  0.5414052980069531  0.00503017795665876  1.0000
  H   H44       1.0  0.18975124955292805  0.5414052980069531  0.9949698219717522  1.0000
  H   H45       1.0  0.18975124935080884  0.9585947022986422  0.49496982189067723  1.0000
  H   H46       1.0  0.3102487502800037  0.9585947022986422  0.5050301780217783  1.0000
  H   H47       1.0  0.6897512497852231  0.45859470155505677  0.9949698221554528  1.0000
  H   H48       1.0  0.8102487503101794  0.45859470155505677  0.005030178124403831  1.0000
  H   H49       1.0  0.7968109352411467  0.40513972038441304  0.6317869331868756  1.0000
  H   H50       1.0  0.7031890648545949  0.40513972038441304  0.36821306669149684  1.0000
  H   H51       1.0  0.29681093530976255  0.9051397192028375  0.13178693293805557  1.0000
  H   H52       1.0  0.20318906482408006  0.9051397192028375  0.8682130669903554  1.0000
  H   H53       1.0  0.20318906462196082  0.5948602791775968  0.36821306690928046  1.0000
  H   H54       1.0  0.29681093551188176  0.5948602791775968  0.6317869330191306  1.0000
  H   H55       1.0  0.7031890645536841  0.09486028035917228  0.8682130667566164  1.0000
  H   H56       1.0  0.7968109355420575  0.09486028035917228  0.13178693312175616  1.0000
  H   H57       1.0  0.7260145743214128  0.026618144335752228  0.7311657423836178  1.0000
  H   H58       1.0  0.7739854257743288  0.026618144335752228  0.2688342574947548  1.0000
  H   H59       1.0  0.22601457438968944  0.5266181450793376  0.23116574253628172  1.0000
  H   H60       1.0  0.2739854257441531  0.5266181450793376  0.7688342573921293  1.0000
  H   H61       1.0  0.2739854255416947  0.9733818552262575  0.2688342577125383  1.0000
  H   H62       1.0  0.22601457408877865  0.9733818552262575  0.7311657426014012  1.0000
  H   H63       1.0  0.7739854254734181  0.4733818544826723  0.7688342575598743  1.0000
  H   H64       1.0  0.7260145741192935  0.4733818544826723  0.23116574230254272  1.0000
  H   H65       1.0  0.6591983118665498  0.6921063286187498  0.7742624582788117  1.0000
  H   H66       1.0  0.8408016882291918  0.6921063286187498  0.22573754159956086  1.0000
  H   H67       1.0  0.1591983114321356  0.19210632980032535  0.2742624580140361  1.0000
  H   H68       1.0  0.34080168819867696  0.19210632980032535  0.7257375418984194  1.0000
  H   H69       1.0  0.34080168849958775  0.30789367094326  0.2257375418332999  1.0000
  H   H70       1.0  0.15919831163425482  0.30789367094326  0.7742624580951111  1.0000
  H   H71       1.0  0.840801688431311  0.8078936697616844  0.725737541680636  1.0000
  H   H72       1.0  0.6591983116644305  0.8078936697616844  0.27426245819773665  1.0000
  H   H73       1.0  0.5500135436862563  0.5590283630559011  0.6234182512671018  1.0000
  H   H74       1.0  0.9499864564094852  0.5590283630559011  0.37658174861127075  1.0000
  H   H75       1.0  0.05001354375453303  0.05902836231231572  0.12341825141976581  1.0000
  H   H76       1.0  0.4499864563793095  0.05902836231231572  0.8765817485086451  1.0000
  H   H77       1.0  0.44998645617719024  0.44097163650610877  0.37658174842757014  1.0000
  H   H78       1.0  0.05001354345362223  0.44097163650610877  0.6234182514848853  1.0000
  H   H79       1.0  0.9499864566116044  0.9409716372496941  0.8765817486923457  1.0000
  H   H80       1.0  0.5500135434837979  0.9409716372496941  0.12341825158751088  1.0000
  H   H81       1.0  0.6170389880635857  0.8956229328717299  0.5807403911495529  1.0000
  H   H82       1.0  0.882961012032156  0.8956229328717299  0.4192596087288197  1.0000
  H   H83       1.0  0.11703898762883226  0.39562293212814453  0.08074039128626138  1.0000
  H   H84       1.0  0.38296101200198024  0.39562293212814453  0.919259608626194  1.0000
  H   H85       1.0  0.38296101230289104  0.10437706669027995  0.41925960856107464  1.0000
  H   H86       1.0  0.11703898783095151  0.10437706669027995  0.5807403913673364  1.0000
  H   H87       1.0  0.8829610122342753  0.6043770674338652  0.9192596088098947  1.0000
  H   H88       1.0  0.6170389878611272  0.6043770674338652  0.08074039146996194  1.0000
  H   H89       1.0  0.5359351866161136  0.18513634263201487  0.782835600273799  1.0000
  H   H90       1.0  0.964064813479289  0.18513634263201487  0.21716440000605772  1.0000
  H   H91       1.0  0.03593518668472946  0.6851363414504393  0.2828356000249788  1.0000
  H   H92       1.0  0.4640648134491131  0.6851363414504393  0.7171643999034322  1.0000
  H   H93       1.0  0.4640648132469938  0.8148636588551559  0.2171643998223572  1.0000
  H   H94       1.0  0.035935186383818665  0.8148636588551559  0.7828356000900982  1.0000
  H   H95       1.0  0.964064813178378  0.3148636581115705  0.7171644000711772  1.0000
  H   H96       1.0  0.5359351864139944  0.3148636581115705  0.28283560019272386  1.0000
  H   H97       1.0  0.5545656796589776  0.511498335904671  0.8013823044047703  1.0000
  H   H98       1.0  0.945434319933734  0.511498335904671  0.19861769545764676  1.0000
  H   H99       1.0  0.0545656797272543  0.011498337086246486  0.3013823045574343  1.0000
  H   H100      1.0  0.44543432040624914  0.011498337086246486  0.6986176957724608  1.0000
  H   H101      1.0  0.4454343202041299  0.4885016636573389  0.1986176956913858  1.0000
  H   H102      1.0  0.05456567992971268  0.4885016636573389  0.8013823042370252  1.0000
  H   H103      1.0  0.9454343201358532  0.9885016644009244  0.6986176955387218  1.0000
  H   H104      1.0  0.5545656799598885  0.9885016644009244  0.3013823043396507  1.0000
  H   H105      1.0  0.6217950236150295  0.29408706597610185  0.7865695132575972  1.0000
  H   H106      1.0  0.878204976480712  0.29408706597610185  0.21343048662077535  1.0000
  H   H107      1.0  0.12179502318027614  0.7940870667196873  0.28656951339430564  1.0000
  H   H108      1.0  0.3782049764501972  0.7940870667196873  0.713430486919634  1.0000
  H   H109      1.0  0.378204976751108  0.705912933585908  0.21343048685451438  1.0000
  H   H110      1.0  0.12179502338273454  0.705912933585908  0.7865695130738966  1.0000
  H   H111      1.0  0.8782049766828313  0.20591293284232262  0.7134304867018503  1.0000
  H   H112      1.0  0.6217950234129103  0.20591293284232262  0.28656951317652213  1.0000
  C   C1        1.0  0.9383738798064125  0.8393362114033551  0.5895792972587818  1.0000
  C   C2        1.0  0.5616261197859599  0.8393362114033551  0.41042070300511946  1.0000
  C   C3        1.0  0.4383738798750283  0.3393362125849306  0.08957929700996164  1.0000
  C   C4        1.0  0.061626119755784234  0.3393362125849306  0.9104207029024939  1.0000
  C   C5        1.0  0.06162612005669504  0.16066378815865479  0.4104207028373743  1.0000
  C   C6        1.0  0.4383738800771475  0.16066378815865479  0.5895792970910367  1.0000
  C   C7        1.0  0.5616261199880792  0.6606637869770793  0.9104207030861945  1.0000
  C   C8        1.0  0.9383738801073233  0.6606637869770793  0.0895792971936622  1.0000
  C   C9        1.0  0.9026965494372605  0.6477341178124547  0.6148038173397217  1.0000
  C   C10       1.0  0.5973034506584811  0.6477341178124547  0.38519618253865084  1.0000
  C   C11       1.0  0.40269654950553707  0.14773411899403016  0.11480381749238566  1.0000
  C   C12       1.0  0.09730345062796628  0.14773411899403016  0.8851961828375094  1.0000
  C   C13       1.0  0.09730345092887707  0.3522658817495552  0.3851961827723899  1.0000
  C   C14       1.0  0.40269654920496545  0.3522658817495552  0.6148038171560212  1.0000
  C   C15       1.0  0.5973034508606004  0.8522658824931406  0.885196182619726  1.0000
  C   C16       1.0  0.9026965492351412  0.8522658824931406  0.11480381725864665  1.0000
  C   C17       1.0  0.8064308052145324  0.7351890801516844  0.5628485876886234  1.0000
  C   C18       1.0  0.69356919488087  0.7351890801516844  0.43715141259123325  1.0000
  C   C19       1.0  0.30643080478011825  0.23518908133325986  0.0628485874238478  1.0000
  C   C20       1.0  0.19356919485069432  0.23518908133325986  0.9371514124886076  1.0000
  C   C21       1.0  0.1935691951516051  0.26481091941032553  0.4371514124234882  1.0000
  C   C22       1.0  0.3064308049822374  0.26481091941032553  0.5628485875049227  1.0000
  C   C23       1.0  0.6935691950829893  0.764810920153911  0.9371514126723083  1.0000
  C   C24       1.0  0.8064308050124132  0.764810920153911  0.06284858760754837  1.0000
  C   C25       1.0  0.8383035340617039  0.9317107587024679  0.5356539496958131  1.0000
  C   C26       1.0  0.6616964660336986  0.9317107587024679  0.46434605058404343  1.0000
  C   C27       1.0  0.3383035341303197  0.43171075795888253  0.035653949446993065  1.0000
  C   C28       1.0  0.1616964660035229  0.43171075795888253  0.964346050481418  1.0000
  C   C29       1.0  0.16169646630443368  0.06828924085954195  0.46434605041629845  1.0000
  C   C30       1.0  0.33830353382940886  0.06828924085954195  0.5356539495121125  1.0000
  C   C31       1.0  0.661696466236157  0.5682892416031273  0.9643460502636344  1.0000
  C   C32       1.0  0.8383035338595847  0.5682892416031273  0.035653949614738126  1.0000
  C   C33       1.0  0.905657749090023  0.986152929638564  0.5493653108737908  1.0000
  C   C34       1.0  0.5943422510057188  0.986152929638564  0.45063468900458176  1.0000
  C   C35       1.0  0.4056577491582996  0.48615293082013955  0.04936531102645481  1.0000
  C   C36       1.0  0.09434225097554295  0.48615293082013955  0.9506346889019561  1.0000
  C   C37       1.0  0.09434225077308458  0.013847069923445797  0.4506346892223652  1.0000
  C   C38       1.0  0.4056577493604188  0.013847069923445797  0.5493653111075298  1.0000
  C   C39       1.0  0.594342250704808  0.5138470706670312  0.9506346890697013  1.0000
  C   C40       1.0  0.9056577493909337  0.5138470706670312  0.049365310808671285  1.0000
  C   C41       1.0  0.9447580944189494  0.20152342745135846  0.5252353548410543  1.0000
  C   C42       1.0  0.5552419056764532  0.20152342745135846  0.47476464543880226  1.0000
  C   C43       1.0  0.4447580944875652  0.7015234281949438  0.025235354592234277  1.0000
  C   C44       1.0  0.05524190564627739  0.7015234281949438  0.9747646453361767  1.0000
  C   C45       1.0  0.05524190544415815  0.7984765721106513  0.4747646452551017  1.0000
  C   C46       1.0  0.4447580941866544  0.7984765721106513  0.5252353546573538  1.0000
  C   C47       1.0  0.5552419058789115  0.2984765732922269  0.9747646451183932  1.0000
  C   C48       1.0  0.9447580942168302  0.2984765732922269  0.02523535475997935  1.0000
  C   C49       1.0  0.677076262081539  0.9831983660026058  0.6527210371211509  1.0000
  C   C50       1.0  0.8229237380142024  0.9831983660026058  0.34727896275722164  1.0000
  C   C51       1.0  0.17707626214981573  0.48319836525902043  0.15272103727381492  1.0000
  C   C52       1.0  0.3229237379840268  0.48319836525902043  0.847278962654596  1.0000
  C   C53       1.0  0.3229237377815684  0.016801633559404054  0.3472789629750051  1.0000
  C   C54       1.0  0.17707626184890496  0.016801633559404054  0.6527210373389344  1.0000
  C   C55       1.0  0.8229237377132919  0.5168016343029894  0.8472789628223412  1.0000
  C   C56       1.0  0.6770762618794197  0.5168016343029894  0.15272103704007592  1.0000
  C   C57       1.0  0.6877186402257127  0.9234019241838852  0.7073403623805675  1.0000
  C   C58       1.0  0.8122813598700289  0.9234019241838852  0.2926596374978051  1.0000
  C   C59       1.0  0.18771864029398938  0.42340192344029987  0.2073403625332315  1.0000
  C   C60       1.0  0.3122813598398532  0.42340192344029987  0.7926596373951795  1.0000
  C   C61       1.0  0.31228136014042485  0.07659807537812464  0.29265963773154413  1.0000
  C   C62       1.0  0.18771863999307856  0.07659807537812464  0.707340362598351  1.0000
  C   C63       1.0  0.8122813600721482  0.57659807612171  0.79265963757888  1.0000
  C   C64       1.0  0.6877186400235934  0.57659807612171  0.20734036229949243  1.0000
  C   C65       1.0  0.6497450986020139  0.7345397541934313  0.7318469175197565  1.0000
  C   C66       1.0  0.8502549014937277  0.7345397541934313  0.26815308235861607  1.0000
  C   C67       1.0  0.14974509867029062  0.23453975537500682  0.23184691767242044  1.0000
  C   C68       1.0  0.350254901463552  0.23453975537500682  0.7681530822559905  1.0000
  C   C69       1.0  0.3502549012614327  0.26546024536857854  0.2681530821749155  1.0000
  C   C70       1.0  0.14974509887240983  0.26546024536857854  0.7318469177534954  1.0000
  C   C71       1.0  0.850254901192817  0.7654602441870031  0.7681530824237356  1.0000
  C   C72       1.0  0.6497450989025856  0.7654602441870031  0.23184691785612102  1.0000
  C   C73       1.0  0.6005044871591358  0.6002882760208279  0.7011441765389651  1.0000
  C   C74       1.0  0.8994955129362666  0.6002882760208279  0.29885582374089154  1.0000
  C   C75       1.0  0.10050448722775171  0.1002882772024034  0.201144176290145  1.0000
  C   C76       1.0  0.39949551290609087  0.1002882772024034  0.7988558236382659  1.0000
  C   C77       1.0  0.39949551320700166  0.39971172354118195  0.2988558235731465  1.0000
  C   C78       1.0  0.1005044869268409  0.39971172354118195  0.7011441763552644  1.0000
  C   C79       1.0  0.8994955131383857  0.8997117223596064  0.7988558238219666  1.0000
  C   C80       1.0  0.6005044869570166  0.8997117223596064  0.20114417645789007  1.0000
  C   C81       1.0  0.5890408008839824  0.6607005479238566  0.6466714026376899  1.0000
  C   C82       1.0  0.9109591992117592  0.6607005479238566  0.3533285972406826  1.0000
  C   C83       1.0  0.08904080095225911  0.1607005491054321  0.1466714027903539  1.0000
  C   C84       1.0  0.41095919918158347  0.1607005491054321  0.853328597138057  1.0000
  C   C85       1.0  0.4109591989794642  0.3392994516381533  0.3533285970569821  1.0000
  C   C86       1.0  0.08904080065134831  0.3392994516381533  0.6466714028554735  1.0000
  C   C87       1.0  0.9109591994138784  0.8392994523817385  0.8533285973217576  1.0000
  C   C88       1.0  0.5890408006818632  0.8392994523817385  0.14667140255661487  1.0000
  C   C89       1.0  0.62672575422375  0.850076772444163  0.622946485321231  1.0000
  C   C90       1.0  0.8732742453689616  0.850076772444163  0.37705351454118596  1.0000
  C   C91       1.0  0.1267257542920267  0.35007677170057766  0.12294648547389504  1.0000
  C   C92       1.0  0.3732742453387858  0.35007677170057766  0.8770535144385606  1.0000
  C   C93       1.0  0.37327424563935746  0.14992322711784684  0.3770535147749251  1.0000
  C   C94       1.0  0.12672575449414591  0.14992322711784684  0.62294648555497  1.0000
  C   C95       1.0  0.8732742455710808  0.6499232278614322  0.877053514622261  1.0000
  C   C96       1.0  0.6267257545246608  0.6499232278614322  0.1229464852561115  1.0000
  C   C97       1.0  0.7175426409458235  0.17988817506547763  0.625656657973357  1.0000
  C   C98       1.0  0.782457359149579  0.17988817506547763  0.3743433423064997  1.0000
  C   C99       1.0  0.2175426410144393  0.6798881738839021  0.12565665772453688  1.0000
  C   C100      1.0  0.2824573591194033  0.6798881738839021  0.8743433422038741  1.0000
  C   C101      1.0  0.2824573594203141  0.8201118244965322  0.3743433421387546  1.0000
  C   C102      1.0  0.2175426407135285  0.8201118244965322  0.6256566577896564  1.0000
  C   C103      1.0  0.7824573593520373  0.3201118256781077  0.8743433419860906  1.0000
  C   C104      1.0  0.7175426407437042  0.3201118256781077  0.12565665789228198  1.0000
  C   C105      1.0  0.5694364514621745  0.34819460159977444  0.7764180606815038  1.0000
  C   C106      1.0  0.9305635486332279  0.34819460159977444  0.22358193959835293  1.0000
  C   C107      1.0  0.06943645153079037  0.848194600418199  0.27641806043268363  1.0000
  C   C108      1.0  0.4305635486030522  0.848194600418199  0.7235819394957274  1.0000
  C   C109      1.0  0.4305635489039629  0.6518053998873963  0.22358193943060783  1.0000
  C   C110      1.0  0.06943645122987957  0.6518053998873963  0.7764180604978032  1.0000
  C   C111      1.0  0.9305635488356864  0.1518053991438109  0.7235819392779439  1.0000
  C   C112      1.0  0.5694364512600553  0.1518053991438109  0.2764180606004287  1.0000
  N   N1        1.0  0.8378537686476856  0.5976954385610297  0.6019201873764201  1.0000
  N   N2        1.0  0.662146231447717  0.5976954385610297  0.3980798129034365  1.0000
  N   N3        1.0  0.3378537687163013  0.09769543781744441  0.10192018712760004  1.0000
  N   N4        1.0  0.16214623141754128  0.09769543781744441  0.8980798128008111  1.0000
  N   N5        1.0  0.16214623121542204  0.40230456100098005  0.3980798127197359  1.0000
  N   N6        1.0  0.33785376841539044  0.40230456100098005  0.6019201871927196  1.0000
  N   N7        1.0  0.6621462316498363  0.9023045617445654  0.8980798129845114  1.0000
  N   N8        1.0  0.8378537684455661  0.9023045617445654  0.1019201872953451  1.0000
  N   N9        1.0  0.9165909578569276  0.33809318819170964  0.484979935838258  1.0000
  N   N10       1.0  0.583409042238814  0.33809318819170964  0.5150200640401146  1.0000
  N   N11       1.0  0.41659095782675193  0.8380931870101341  0.9849799357356324  1.0000
  N   N12       1.0  0.08340904230709063  0.8380931870101341  0.015020064192778538  1.0000
  N   N13       1.0  0.08340904200617982  0.6619068132954611  0.515020064257898  1.0000
  N   N14       1.0  0.41659095762429355  0.6619068132954611  0.4849799360560415  1.0000
  N   N15       1.0  0.5834090420366947  0.1619068125518757  0.015020063959039513  1.0000
  N   N16       1.0  0.9165909575560168  0.1619068125518757  0.9849799359033775  1.0000
  O   O1        1.0  0.002348852496515973  0.24972136221354102  0.5451401642576834  1.0000
  O   O2        1.0  0.4976511476373266  0.24972136221354102  0.4548598356707275  1.0000
  O   O3        1.0  0.5023488525266917  0.7497213610319655  0.04514016436030904  1.0000
  O   O4        1.0  0.9976511475690499  0.7497213610319655  0.9548598355180635  1.0000
  O   O5        1.0  0.9976511473669306  0.7502786392736297  0.45485983543698844  1.0000
  O   O6        1.0  0.5023488527288109  0.7502786392736297  0.5451401644413841  1.0000
  O   O7        1.0  0.49765114733641586  0.25027863853004434  0.9548598357358471  1.0000
  O   O8        1.0  0.002348852294057594  0.25027863853004434  0.04514016457809257  1.0000
  O   O9        1.0  0.769171051310717  0.27092982953688344  0.655112095011052  1.0000
  O   O10       1.0  0.7308289487850247  0.27092982953688344  0.34488790486732035  1.0000
  O   O11       1.0  0.2691710508759636  0.770929828355308  0.15511209514776067  1.0000
  O   O12       1.0  0.23082894875484894  0.770929828355308  0.8448879047646949  1.0000
  O   O13       1.0  0.23082894905542056  0.7290701719502873  0.34488790510105943  1.0000
  O   O14       1.0  0.2691710510780828  0.7290701719502873  0.6551120952288355  1.0000
  O   O15       1.0  0.7308289489871439  0.22907017120670192  0.8448879049483954  1.0000
  O   O16       1.0  0.7691710511085976  0.22907017120670192  0.15511209492997713  1.0000
  O   O17       1.0  0.7052072676596293  0.25184055619526996  0.5784350875625626  1.0000
  O   O18       1.0  0.7947927319327431  0.25184055619526996  0.42156491270133845  1.0000
  O   O19       1.0  0.20520726772824507  0.7518405569388553  0.07843508731374257  1.0000
  O   O20       1.0  0.2947927319025674  0.7518405569388553  0.9215649125987129  1.0000
  O   O21       1.0  0.29479273220347824  0.7481594433667399  0.4215649125335934  1.0000
  O   O22       1.0  0.20520726793036434  0.7481594433667399  0.5784350873948176  1.0000
  O   O23       1.0  0.7947927321352015  0.24815944262315456  0.9215649123809294  1.0000
  O   O24       1.0  0.70520726796054  0.24815944262315456  0.07843508749744313  1.0000
  O   O25       1.0  0.5607961911365859  0.4104949288203803  0.7205140946864184  1.0000
  O   O26       1.0  0.9392038089588168  0.4104949288203803  0.27948590559343833  1.0000
  O   O27       1.0  0.060796191205201584  0.9104949295639656  0.22051409443759817  1.0000
  O   O28       1.0  0.4392038089286409  0.9104949295639656  0.7794859054908128  1.0000
  O   O29       1.0  0.43920380872652176  0.5895050707416296  0.2794859054097378  1.0000
  O   O30       1.0  0.06079619140732082  0.5895050707416296  0.7205140945186732  1.0000
  O   O31       1.0  0.9392038086582449  0.0895050699980442  0.7794859052570738  1.0000
  O   O32       1.0  0.5607961914374966  0.0895050699980442  0.22051409462129876  1.0000
