data_image0
_chemical_formula_structural       H112C112N16O32
_chemical_formula_sum              "H112 C112 N16 O32"
_cell_length_a       19.960174751618524
_cell_length_b       5.18091514925363
_cell_length_c       24.879684359366543
_cell_angle_alpha    90.0
_cell_angle_beta     92.26242328137702
_cell_angle_gamma    90.0

_space_group_name_H-M_alt    "P 1"
_space_group_IT_number       1

loop_
  _space_group_symop_operation_xyz
  'x, y, z'

loop_
  _atom_site_type_symbol
  _atom_site_label
  _atom_site_symmetry_multiplicity
  _atom_site_fract_x
  _atom_site_fract_y
  _atom_site_fract_z
  _atom_site_occupancy
  H   H1        1.0  0.9446809609828992  0.49348693934281557  0.47179911415840853  1.0000
  H   H2        1.0  0.555319038973557  0.49348693934281557  0.5282008857395214  1.0000
  H   H3        1.0  0.44468096111281846  0.9934869384497658  0.9717991144826693  1.0000
  H   H4        1.0  0.05531903876443547  0.9934869384497658  0.02820088570896626  1.0000
  H   H5        1.0  0.05531903893451494  0.5065130608012459  0.5282008854844579  1.0000
  H   H6        1.0  0.444680960943298  0.5065130608012459  0.47179911430526134  1.0000
  H   H7        1.0  0.5553190388040367  0.0065130616942956805  0.028200885562113413  1.0000
  H   H8        1.0  0.9446809611524197  0.0065130616942956805  0.9717991143358166  1.0000
  H   H9        1.0  0.8719881160644238  0.29348940026918835  0.4656127218906737  1.0000
  H   H10       1.0  0.6280118838920327  0.29348940026918835  0.5343872780072562  1.0000
  H   H11       1.0  0.37198811619490196  0.7934893993761386  0.965612721813018  1.0000
  H   H12       1.0  0.12801188418429915  0.7934893993761386  0.034387277993028535  1.0000
  H   H13       1.0  0.12801188385243137  0.7065105998748732  0.5343872781541089  1.0000
  H   H14       1.0  0.37198811602482246  0.7065105998748732  0.46561272203752657  1.0000
  H   H15       1.0  0.6280118837219532  0.2065106007679229  0.03438727823176459  1.0000
  H   H16       1.0  0.8719881162339439  0.2065106007679229  0.9656127220680817  1.0000
  H   H17       1.0  0.9905842004918413  0.8784152295286333  0.6010506943289533  1.0000
  H   H18       1.0  0.5094157994640559  0.8784152295286333  0.398949305970893  1.0000
  H   H19       1.0  0.49058420078410797  0.378415228491522  0.10105069431472567  1.0000
  H   H20       1.0  0.009415799594534048  0.378415228491522  0.8989493058932376  1.0000
  H   H21       1.0  0.00941579942501367  0.12158477061542829  0.3989493057158295  1.0000
  H   H22       1.0  0.4905842004527992  0.12158477061542829  0.6010506940738898  1.0000
  H   H23       1.0  0.5094157996341353  0.6215847716525396  0.8989493057463847  1.0000
  H   H24       1.0  0.990584200322321  0.6215847716525396  0.10105069415154531  1.0000
  H   H25       1.0  0.9257855951280409  0.5283264773008929  0.646679876993106  1.0000
  H   H26       1.0  0.5742144048284153  0.5283264773008929  0.3533201229048238  1.0000
  H   H27       1.0  0.42578559491891926  0.02832647819394264  0.14667987696255097  1.0000
  H   H28       1.0  0.07421440495889366  0.02832647819394264  0.8533201228271682  1.0000
  H   H29       1.0  0.07421440478937329  0.47167352284316855  0.35332012264976026  1.0000
  H   H30       1.0  0.4257855950884396  0.47167352284316855  0.6466798771399589  1.0000
  H   H31       1.0  0.5742144049984949  0.9716735219501189  0.8533201226803154  1.0000
  H   H32       1.0  0.9257855949579613  0.9716735219501189  0.14667987721761452  1.0000
  H   H33       1.0  0.7543553700977538  0.6845700070017443  0.5541103153981977  1.0000
  H   H34       1.0  0.7456446298587024  0.6845700070017443  0.44588968449973226  1.0000
  H   H35       1.0  0.2543553703900204  0.18457000789479397  0.05411031538397  1.0000
  H   H36       1.0  0.2456446299886216  0.18457000789479397  0.945889684823993  1.0000
  H   H37       1.0  0.24564462981910126  0.31542999314231723  0.4458896846465852  1.0000
  H   H38       1.0  0.2543553700581526  0.31542999314231723  0.5541103155450505  1.0000
  H   H39       1.0  0.7456446300282228  0.8154299922492676  0.9458896846771403  1.0000
  H   H40       1.0  0.7543553704296216  0.8154299922492676  0.05411031523711716  1.0000
  H   H41       1.0  0.810901087060329  0.0436301065522303  0.5049860064822824  1.0000
  H   H42       1.0  0.6890989128955681  0.0436301065522303  0.49501399381756384  1.0000
  H   H43       1.0  0.31090108735259564  0.5436301056591806  0.00498600646805483  1.0000
  H   H44       1.0  0.18909891252465824  0.5436301056591806  0.9950139937235807  1.0000
  H   H45       1.0  0.189098912856526  0.9563698935918312  0.49501399356250025  1.0000
  H   H46       1.0  0.31090108702128694  0.9563698935918312  0.5049860062272188  1.0000
  H   H47       1.0  0.6890989125642595  0.45636989448488097  0.9950139935767279  1.0000
  H   H48       1.0  0.8109010873921969  0.45636989448488097  0.004986006321201991  1.0000
  H   H49       1.0  0.797014449965598  0.4064952907602426  0.6314153361736061  1.0000
  H   H50       1.0  0.7029855499902993  0.4064952907602426  0.36858466412624025  1.0000
  H   H51       1.0  0.2970144497564764  0.9064952917973539  0.13141533614305098  1.0000
  H   H52       1.0  0.20298555012077746  0.9064952917973539  0.8685846640485847  1.0000
  H   H53       1.0  0.20298554995125706  0.5935047093838188  0.3685846638711766  1.0000
  H   H54       1.0  0.29701444992655585  0.5935047093838188  0.6314153359185426  1.0000
  H   H55       1.0  0.7029855501603787  0.09350470834670765  0.8685846639017318  1.0000
  H   H56       1.0  0.7970144497960776  0.09350470834670765  0.13141533599619815  1.0000
  H   H57       1.0  0.7264900944961749  0.027567604541945772  0.7309296252418638  1.0000
  H   H58       1.0  0.7735099054602815  0.027567604541945772  0.2690703746560662  1.0000
  H   H59       1.0  0.22649009478844134  0.527567605579057  0.2309296252276361  1.0000
  H   H60       1.0  0.27350990559020066  0.527567605579057  0.7690703749803269  1.0000
  H   H61       1.0  0.27350990542068027  0.9724323956021158  0.269070374802919  1.0000
  H   H62       1.0  0.22649009445713264  0.9724323956021158  0.7309296249868003  1.0000
  H   H63       1.0  0.7735099051284138  0.4724323945650045  0.7690703748171466  1.0000
  H   H64       1.0  0.7264900948280425  0.4724323945650045  0.23092962508078324  1.0000
  H   H65       1.0  0.6593413557066635  0.6925587404219321  0.7741273538993453  1.0000
  H   H66       1.0  0.8406586442497929  0.6925587404219321  0.22587264599858467  1.0000
  H   H67       1.0  0.15934135599893007  0.19255873938482088  0.27412735388511766  1.0000
  H   H68       1.0  0.34065864387888284  0.19255873938482088  0.7258726459046015  1.0000
  H   H69       1.0  0.34065864421019154  0.30744125972212943  0.22587264614543748  1.0000
  H   H70       1.0  0.15934135616845044  0.30744125972212943  0.7741273540625256  1.0000
  H   H71       1.0  0.8406586439179251  0.8074412607592406  0.7258726461596651  1.0000
  H   H72       1.0  0.6593413560385313  0.8074412607592406  0.27412735373826486  1.0000
  H   H73       1.0  0.5499513089466277  0.5614714420519058  0.6235071208259653  1.0000
  H   H74       1.0  0.9500486910092695  0.5614714420519058  0.37649287947388105  1.0000
  H   H75       1.0  0.04995130923889434  0.061471442944955476  0.12350712081173765  1.0000
  H   H76       1.0  0.4500486911397476  0.061471442944955476  0.8764928793962254  1.0000
  H   H77       1.0  0.45004869097022726  0.43852855616199476  0.3764928792188174  1.0000
  H   H78       1.0  0.04995130890758567  0.43852855616199476  0.6235071205709017  1.0000
  H   H79       1.0  0.9500486911793489  0.9385285571991061  0.8764928792493726  1.0000
  H   H80       1.0  0.5499513087771075  0.9385285571991061  0.12350712064855732  1.0000
  H   H81       1.0  0.6174451350588194  0.8985657718541603  0.5805816561876903  1.0000
  H   H82       1.0  0.8825548648976369  0.8985657718541603  0.41941834371023956  1.0000
  H   H83       1.0  0.1174451353510859  0.3985657708170492  0.08058165617346268  1.0000
  H   H84       1.0  0.38255486502811514  0.3985657708170492  0.919418343632584  1.0000
  H   H85       1.0  0.38255486485803575  0.10143422828990117  0.4194183438570925  1.0000
  H   H86       1.0  0.11744513501921813  0.10143422828990117  0.5805816563345431  1.0000
  H   H87       1.0  0.8825548650671572  0.6014342293270124  0.9194183438876476  1.0000
  H   H88       1.0  0.617445135390128  0.6014342293270124  0.08058165642852623  1.0000
  H   H89       1.0  0.5355985372908866  0.19139301869146613  0.7835506815954171  1.0000
  H   H90       1.0  0.9644014626655698  0.19139301869146613  0.2164493183025129  1.0000
  H   H91       1.0  0.03559853758315305  0.6913930177984164  0.2835506815811894  1.0000
  H   H92       1.0  0.464401462796048  0.6913930177984164  0.7164493182248572  1.0000
  H   H93       1.0  0.46440146262596854  0.8086069814525954  0.21644931844936574  1.0000
  H   H94       1.0  0.035598537251285284  0.8086069814525954  0.7835506817422699  1.0000
  H   H95       1.0  0.9644014623337019  0.3086069823456451  0.7164493184635933  1.0000
  H   H96       1.0  0.5355985376221951  0.3086069823456451  0.283550681836253  1.0000
  H   H97       1.0  0.5560274821612234  0.5178869316913124  0.8015363544744134  1.0000
  H   H98       1.0  0.943972517795233  0.5178869316913124  0.1984636454235164  1.0000
  H   H99       1.0  0.05602748195210178  0.017886932584362105  0.30153635444385835  1.0000
  H   H100      1.0  0.4439725179257112  0.017886932584362105  0.6984636453458609  1.0000
  H   H101      1.0  0.4439725177556317  0.4821130684527491  0.19846364557036927  1.0000
  H   H102      1.0  0.05602748212162216  0.4821130684527491  0.8015363546212663  1.0000
  H   H103      1.0  0.9439725179647535  0.9821130675596995  0.6984636456009244  1.0000
  H   H104      1.0  0.5560274819911439  0.9821130675596995  0.3015363546989219  1.0000
  H   H105      1.0  0.6218384332155067  0.29436396004665405  0.7864715086014599  1.0000
  H   H106      1.0  0.8781615667409497  0.29436396004665405  0.21352849129647  1.0000
  H   H107      1.0  0.12183843300638512  0.7943639610837653  0.28647150857090475  1.0000
  H   H108      1.0  0.3781615668714278  0.7943639610837653  0.7135284912188145  1.0000
  H   H109      1.0  0.3781615667013484  0.7056360400974074  0.21352849144332287  1.0000
  H   H110      1.0  0.1218384331759055  0.7056360400974074  0.7864715087483127  1.0000
  H   H111      1.0  0.87816156691047  0.2056360390602963  0.713528491473878  1.0000
  H   H112      1.0  0.6218384330454273  0.2056360390602963  0.28647150882596834  1.0000
  C   C1        1.0  0.9383332127514654  0.8388887454808293  0.5897818255611569  1.0000
  C   C2        1.0  0.561666787706379  0.8388887454808293  0.4102181743531006  1.0000
  C   C3        1.0  0.4383332125423438  0.33888874637387884  0.08978182553060167  1.0000
  C   C4        1.0  0.061666787335469105  0.33888874637387884  0.9102181742591174  1.0000
  C   C5        1.0  0.06166678766677778  0.16111125466323237  0.4102181744999535  1.0000
  C   C6        1.0  0.43833321271186426  0.16111125466323237  0.5897818257080096  1.0000
  C   C7        1.0  0.5616667873745113  0.6611112537701826  0.910218174514181  1.0000
  C   C8        1.0  0.9383332125819449  0.6611112537701826  0.08978182538374882  1.0000
  C   C9        1.0  0.9025641860391346  0.6469671348473787  0.6149223582304589  1.0000
  C   C10       1.0  0.5974358139173217  0.6469671348473787  0.38507764166747094  1.0000
  C   C11       1.0  0.4025641858300131  0.14696713574042838  0.11492235819990387  1.0000
  C   C12       1.0  0.09743581404779986  0.14696713574042838  0.8850776415898154  1.0000
  C   C13       1.0  0.09743581387772039  0.3530328652966828  0.38507764181432375  1.0000
  C   C14       1.0  0.4025641859995334  0.3530328652966828  0.6149223583773119  1.0000
  C   C15       1.0  0.597435814086842  0.853032864403633  0.8850776418448789  1.0000
  C   C16       1.0  0.9025641858690552  0.853032864403633  0.11492235845496743  1.0000
  C   C17       1.0  0.8066493886068637  0.7362218064021941  0.5628241675825467  1.0000
  C   C18       1.0  0.6933506118509807  0.7362218064021941  0.4371758323317106  1.0000
  C   C19       1.0  0.3066493883977421  0.2362218072952438  0.0628241675519916  1.0000
  C   C20       1.0  0.19335061148007082  0.2362218072952438  0.9371758322377275  1.0000
  C   C21       1.0  0.1933506118113795  0.26377819374186745  0.4371758324785635  1.0000
  C   C22       1.0  0.3066493885672625  0.26377819374186745  0.5628241677293996  1.0000
  C   C23       1.0  0.6933506115191129  0.7637781928488178  0.9371758324927911  1.0000
  C   C24       1.0  0.8066493884367844  0.7637781928488178  0.06282416780705517  1.0000
  C   C25       1.0  0.8386130356830851  0.9330085382109317  0.5357395066909977  1.0000
  C   C26       1.0  0.6613869642733712  0.9330085382109317  0.4642604932069322  1.0000
  C   C27       1.0  0.33861303597535164  0.43300853910398146  0.03573950667677013  1.0000
  C   C28       1.0  0.16138696440384948  0.43300853910398146  0.9642604931292765  1.0000
  C   C29       1.0  0.16138696423377  0.0669914619331298  0.464260493353785  1.0000
  C   C30       1.0  0.33861303564348383  0.0669914619331298  0.5357395068378507  1.0000
  C   C31       1.0  0.6613869644428917  0.56699146104008  0.9642604933843402  1.0000
  C   C32       1.0  0.8386130355135646  0.56699146104008  0.03573950651358978  1.0000
  C   C33       1.0  0.9057631667840015  0.9866072040836984  0.549571749945001  1.0000
  C   C34       1.0  0.5942368331718957  0.9866072040836984  0.4504282503548454  1.0000
  C   C35       1.0  0.405763167076268  0.48660720497674803  0.04957174993077332  1.0000
  C   C36       1.0  0.09423683280098583  0.48660720497674803  0.9504282502608623  1.0000
  C   C37       1.0  0.09423683313285358  0.013392796060363194  0.45042825009978177  1.0000
  C   C38       1.0  0.40576316724634753  0.013392796060363194  0.5495717497062649  1.0000
  C   C39       1.0  0.594236832840587  0.5133927951673135  0.9504282501140094  1.0000
  C   C40       1.0  0.9057631671158693  0.5133927951673135  0.049571749783920475  1.0000
  C   C41       1.0  0.9447945238956846  0.20219499447909553  0.5254040915449225  1.0000
  C   C42       1.0  0.5552054760602126  0.20219499447909553  0.47459590875492375  1.0000
  C   C43       1.0  0.44479452368656297  0.7021949935860459  0.025404091514367386  1.0000
  C   C44       1.0  0.055205476190690876  0.7021949935860459  0.9745959086772681  1.0000
  C   C45       1.0  0.055205476522558646  0.797805005664966  0.4745959085161877  1.0000
  C   C46       1.0  0.4447945238566424  0.797805005664966  0.5254040912898589  1.0000
  C   C47       1.0  0.555205476230292  0.29780500655801573  0.9745959085304154  1.0000
  C   C48       1.0  0.9447945237261642  0.29780500655801573  0.025404091367514543  1.0000
  C   C49       1.0  0.6772997556042027  0.9845356936090389  0.652593075656495  1.0000
  C   C50       1.0  0.8227002443522538  0.9845356936090389  0.34740692424143493  1.0000
  C   C51       1.0  0.17729975589646924  0.48453569257192775  0.15259307564226735  1.0000
  C   C52       1.0  0.3227002439813437  0.48453569257192775  0.8474069241474519  1.0000
  C   C53       1.0  0.3227002443126524  0.015464306535022504  0.34740692438828774  1.0000
  C   C54       1.0  0.1772997560659896  0.015464306535022504  0.6525930758196753  1.0000
  C   C55       1.0  0.8227002440209449  0.5154643075721337  0.847406924000599  1.0000
  C   C56       1.0  0.6772997559355113  0.5154643075721337  0.1525930758973309  1.0000
  C   C57       1.0  0.6880494348095839  0.924648098259268  0.7072359425596128  1.0000
  C   C58       1.0  0.8119505651468724  0.924648098259268  0.2927640573383171  1.0000
  C   C59       1.0  0.1880494345999032  0.4246480991523177  0.20723594293097408  1.0000
  C   C60       1.0  0.3119505652773507  0.4246480991523177  0.7927640572606616  1.0000
  C   C61       1.0  0.31195056510783026  0.07535190188479354  0.29276405708325354  1.0000
  C   C62       1.0  0.18804943476998265  0.07535190188479354  0.7072359427064656  1.0000
  C   C63       1.0  0.8119505653169519  0.5753519009917438  0.7927640571138087  1.0000
  C   C64       1.0  0.6880494346395044  0.5753519009917438  0.20723594278412122  1.0000
  C   C65       1.0  0.6499802279194  0.7359900481190704  0.7317265944479804  1.0000
  C   C66       1.0  0.8500197720364971  0.7359900481190704  0.2682734058518659  1.0000
  C   C67       1.0  0.14998022821166654  0.23599004708195925  0.23172659443375282  1.0000
  C   C68       1.0  0.35001977216697544  0.23599004708195925  0.7682734057742103  1.0000
  C   C69       1.0  0.35001977199745504  0.26400995202499106  0.26827340559680235  1.0000
  C   C70       1.0  0.1499802278803579  0.26400995202499106  0.7317265941929169  1.0000
  C   C71       1.0  0.8500197717051885  0.7640099530621023  0.76827340561103  1.0000
  C   C72       1.0  0.6499802282512678  0.7640099530621023  0.23172659428689993  1.0000
  C   C73       1.0  0.6006063995889447  0.6025555678999548  0.7010908407461844  1.0000
  C   C74       1.0  0.8993936003669525  0.6025555678999548  0.29890915955366176  1.0000
  C   C75       1.0  0.10060639988121121  0.10255556686284362  0.20109084073195688  1.0000
  C   C76       1.0  0.3993936004974308  0.10255556686284362  0.7989091594760063  1.0000
  C   C77       1.0  0.3993936003279104  0.39744443224410664  0.29890915929859824  1.0000
  C   C78       1.0  0.10060639954990254  0.39744443224410664  0.7010908404911209  1.0000
  C   C79       1.0  0.899393600537032  0.8974444332812178  0.7989091593291534  1.0000
  C   C80       1.0  0.6006063999208124  0.8974444332812178  0.20109084058510407  1.0000
  C   C81       1.0  0.5891081908034095  0.6629487187210169  0.6465654060216358  1.0000
  C   C82       1.0  0.9108918091530469  0.6629487187210169  0.35343459387629406  1.0000
  C   C83       1.0  0.08910819059428783  0.16294871768390573  0.14656540599108067  1.0000
  C   C84       1.0  0.41089180928352503  0.16294871768390573  0.8534345937986385  1.0000
  C   C85       1.0  0.4108918091134457  0.3370512814230446  0.3534345940231469  1.0000
  C   C86       1.0  0.0891081907638082  0.3370512814230446  0.6465654061684887  1.0000
  C   C87       1.0  0.9108918093225671  0.8370512824601559  0.853434594053702  1.0000
  C   C88       1.0  0.5891081906338891  0.8370512824601559  0.14656540584422784  1.0000
  C   C89       1.0  0.6269209813248259  0.852048766063259  0.6228337739722264  1.0000
  C   C90       1.0  0.8730790186316305  0.852048766063259  0.37716622592570354  1.0000
  C   C91       1.0  0.12692098161709242  0.35204876502614774  0.12283377395799876  1.0000
  C   C92       1.0  0.37307901826072054  0.35204876502614774  0.8771662258317204  1.0000
  C   C93       1.0  0.3730790185920292  0.1479512340808026  0.3771662260725564  1.0000
  C   C94       1.0  0.12692098128522467  0.1479512340808026  0.6228337741190791  1.0000
  C   C95       1.0  0.8730790183003218  0.6479512331877529  0.8771662256848676  1.0000
  C   C96       1.0  0.6269209816561345  0.6479512331877529  0.1228337742130623  1.0000
  C   C97       1.0  0.7175497442788917  0.18096541112723438  0.6252627277152011  1.0000
  C   C98       1.0  0.7824502556770054  0.18096541112723438  0.37473727258464523  1.0000
  C   C99       1.0  0.2175497445711583  0.6809654121643457  0.12526272770097344  1.0000
  C   C100      1.0  0.2824502553060955  0.6809654121643457  0.8747372724906621  1.0000
  C   C101      1.0  0.2824502556379633  0.8190345890168271  0.37473727232958165  1.0000
  C   C102      1.0  0.21754974474123775  0.8190345890168271  0.6252627274764649  1.0000
  C   C103      1.0  0.7824502553456968  0.3190345879797159  0.8747372723438094  1.0000
  C   C104      1.0  0.7175497446107596  0.3190345879797159  0.12526272755412057  1.0000
  C   C105      1.0  0.569762519558381  0.3521008253267374  0.7767205247632818  1.0000
  C   C106      1.0  0.9302374803980754  0.3521008253267374  0.2232794751346481  1.0000
  C   C107      1.0  0.0697625198500884  0.8521008263638488  0.2767205251509706  1.0000
  C   C108      1.0  0.43023748052855365  0.8521008263638488  0.7232794750569925  1.0000
  C   C109      1.0  0.4302374803590332  0.6478991748173241  0.22327947487958458  1.0000
  C   C110      1.0  0.06976251951877972  0.6478991748173241  0.7767205249101347  1.0000
  C   C111      1.0  0.9302374805681548  0.14789917378021286  0.7232794749101397  1.0000
  C   C112      1.0  0.5697625198896896  0.14789917378021286  0.27672052500411776  1.0000
  N   N1        1.0  0.8379283590330386  0.5978300571948574  0.6018806271512527  1.0000
  N   N2        1.0  0.6620716409234176  0.5978300571948574  0.3981193727466773  1.0000
  N   N3        1.0  0.33792835882391703  0.09783005808790703  0.10188062712069751  1.0000
  N   N4        1.0  0.1620716410538959  0.09783005808790703  0.8981193726690216  1.0000
  N   N5        1.0  0.16207164088381645  0.4021699429492042  0.39811937289353005  1.0000
  N   N6        1.0  0.3379283589934374  0.4021699429492042  0.6018806272981054  1.0000
  N   N7        1.0  0.662071641092938  0.9021699420561545  0.8981193729240852  1.0000
  N   N8        1.0  0.8379283588635184  0.9021699420561545  0.10188062697384466  1.0000
  N   N9        1.0  0.9166275741259683  0.33980211396699256  0.48524128361991814  1.0000
  N   N10       1.0  0.5833724258304879  0.33980211396699256  0.5147587162780117  1.0000
  N   N11       1.0  0.4166275742564466  0.8398021130739428  0.9852412835422625  1.0000
  N   N12       1.0  0.08337242562080723  0.8398021130739428  0.014758716649373045  1.0000
  N   N13       1.0  0.08337242579088669  0.660197886177069  0.5147587164248647  1.0000
  N   N14       1.0  0.41662757408692624  0.660197886177069  0.48524128336485456  1.0000
  N   N15       1.0  0.5833724256604085  0.16019788513995775  0.0147587165025202  1.0000
  N   N16       1.0  0.9166275742960478  0.16019788513995775  0.9852412833954097  1.0000
  O   O1        1.0  0.0023055146954102114  0.24869807415889084  0.545347049024517  1.0000
  O   O2        1.0  0.4976944856832318  0.24869807415889084  0.4546529511834461  1.0000
  O   O3        1.0  0.502305514564932  0.7486980732658411  0.04534704910217256  1.0000
  O   O4        1.0  0.9976944853909652  0.7486980732658411  0.9546529511976738  1.0000
  O   O5        1.0  0.997694485221445  0.7513019259851708  0.4546529510202658  1.0000
  O   O6        1.0  0.5023055147350114  0.7513019259851708  0.545347048877664  1.0000
  O   O7        1.0  0.49769448535192307  0.2513019249480595  0.9546529509426103  1.0000
  O   O8        1.0  0.0023055145258898354  0.2513019249480595  0.045347048847108995  1.0000
  O   O9        1.0  0.7691320925849262  0.2721246979316204  0.6545963682620145  1.0000
  O   O10       1.0  0.730867907370971  0.2721246979316204  0.3454036320378318  1.0000
  O   O11       1.0  0.26913209237580465  0.7721246989687317  0.15459636823145942  1.0000
  O   O12       1.0  0.2308679075014492  0.7721246989687317  0.8454036319601762  1.0000
  O   O13       1.0  0.23086790733192886  0.7278753022124411  0.3454036317827682  1.0000
  O   O14       1.0  0.2691320925458841  0.7278753022124411  0.654596368006951  1.0000
  O   O15       1.0  0.7308679075410505  0.2278753011753299  0.8454036318133233  1.0000
  O   O16       1.0  0.7691320924154059  0.2278753011753299  0.15459636808460658  1.0000
  O   O17       1.0  0.7049122137573506  0.25228490765541645  0.5779733223745811  1.0000
  O   O18       1.0  0.7950877861985468  0.25228490765541645  0.42202667792526516  1.0000
  O   O19       1.0  0.20491221404961704  0.7522849086925276  0.07797332236035351  1.0000
  O   O20       1.0  0.29508778582763684  0.7522849086925276  0.922026677831282  1.0000
  O   O21       1.0  0.2950877861595046  0.7477150924886451  0.42202667767020163  1.0000
  O   O22       1.0  0.2049122137183084  0.7477150924886451  0.5779733221195176  1.0000
  O   O23       1.0  0.795087785867238  0.24771509145153386  0.9220266776844291  1.0000
  O   O24       1.0  0.7049122140892182  0.24771509145153386  0.07797332221350066  1.0000
  O   O25       1.0  0.5608012719610079  0.41352681684212567  0.7207105472864667  1.0000
  O   O26       1.0  0.9391987279948892  0.41352681684212567  0.27928945301337976  1.0000
  O   O27       1.0  0.06080127175188632  0.913526815949076  0.22071054725591144  1.0000
  O   O28       1.0  0.43919872812536753  0.913526815949076  0.779289452935724  1.0000
  O   O29       1.0  0.4391987279558471  0.5864731833019358  0.2792894527583162  1.0000
  O   O30       1.0  0.06080127192196579  0.5864731833019358  0.720710547031403  1.0000
  O   O31       1.0  0.9391987281649689  0.08647318226482459  0.7792894527888713  1.0000
  O   O32       1.0  0.5608012717914875  0.08647318226482459  0.22071054710905857  1.0000
