data_image0
_chemical_formula_structural       H36C40N2O4F8S4I2
_chemical_formula_sum              "H36 C40 N2 O4 F8 S4 I2"
_cell_length_a       7.635679692460762
_cell_length_b       9.975115740082279
_cell_length_c       14.680521635539968
_cell_angle_alpha    90.88123321816055
_cell_angle_beta     101.81660338878265
_cell_angle_gamma    109.997257217722

_space_group_name_H-M_alt    "P 1"
_space_group_IT_number       1

loop_
  _space_group_symop_operation_xyz
  'x, y, z'

loop_
  _atom_site_type_symbol
  _atom_site_label
  _atom_site_symmetry_multiplicity
  _atom_site_fract_x
  _atom_site_fract_y
  _atom_site_fract_z
  _atom_site_occupancy
  H   H1        1.0  0.23050050440831588  0.4074667573661476  0.62194199589337  1.0000
  H   H2        1.0  0.7694994958235085  0.5925332435582609  0.37805800418589414  1.0000
  H   H3        1.0  0.020833531831794046  0.347725098840194  0.6684136442853745  1.0000
  H   H4        1.0  0.979166467923196  0.6522749010175986  0.3315863557952642  1.0000
  H   H5        1.0  0.15026777335745095  0.6090324843513134  0.6994301202485053  1.0000
  H   H6        1.0  0.8497322263975389  0.3909675155064789  0.3005698798321333  1.0000
  H   H7        1.0  0.38614762246391876  0.6101128660088535  0.74239656842594  1.0000
  H   H8        1.0  0.6138523777679056  0.38988713491555493  0.25760343165332406  1.0000
  H   H9        1.0  0.041097691369084234  0.4897252469474336  0.831272651091004  1.0000
  H   H10       1.0  0.9589023083859058  0.5102747529103588  0.16872734898963446  1.0000
  H   H11       1.0  0.22944461679804193  0.7529026564753242  0.8650109858343071  1.0000
  H   H12       1.0  0.77055538426909  0.24709734338267295  0.13498901425258497  1.0000
  H   H13       1.0  0.44015304837300984  0.7157749733062627  0.9036867936055184  1.0000
  H   H14       1.0  0.5598469513819802  0.2842250265515298  0.09631320647512023  1.0000
  H   H15       1.0  0.08943290780860072  0.6214251313057916  0.9918857393502527  1.0000
  H   H16       1.0  0.9105670924232235  0.3785748696186168  0.008114260729011363  1.0000
  H   H17       1.0  0.29749725263223264  0.578692551083973  0.030862508807034696  1.0000
  H   H18       1.0  0.7025027471227573  0.42130744877381937  0.9691374912736038  1.0000
  H   H19       1.0  0.294858907718916  0.8854708871440221  0.024076350629831218  1.0000
  H   H20       1.0  0.705141092036074  0.11452911271377025  0.9759236494508075  1.0000
  H   H21       1.0  0.49486703660103176  0.8376904948875395  0.06853912924090745  1.0000
  H   H22       1.0  0.5051329644661001  0.1623095049704575  0.9314608708459847  1.0000
  H   H23       1.0  0.1293456892737597  0.7521712469126323  0.14622066184772192  1.0000
  H   H24       1.0  0.8706543117933723  0.24782875294536494  0.8537793382391702  1.0000
  H   H25       1.0  0.3344103960020726  0.7107340805603755  0.1939142851761068  1.0000
  H   H26       1.0  0.6655896037529173  0.28926591929741696  0.8060857149045317  1.0000
  H   H27       1.0  0.0819802970535769  0.008243525378309385  0.7809316248248329  1.0000
  H   H28       1.0  0.9180197027014131  0.9917564744794831  0.21906837525580564  1.0000
  H   H29       1.0  0.9566349928737901  0.8013385506564457  0.659461462590936  1.0000
  H   H30       1.0  0.04336500688119994  0.19866144920134676  0.34053853748970253  1.0000
  H   H31       1.0  0.6574167272665656  0.5320091966880834  0.8305209889956509  1.0000
  H   H32       1.0  0.34258327248842435  0.467990803169709  0.1694790110849878  1.0000
  H   H33       1.0  0.7781805732984688  0.7212935398226974  0.9618834184338972  1.0000
  H   H34       1.0  0.2218194264565211  0.27870646003509514  0.03811658164674132  1.0000
  H   H35       1.0  0.10454775844584621  0.10475740245821277  0.9357493472164081  1.0000
  H   H36       1.0  0.8954522413091437  0.8952425973995795  0.06425065286423041  1.0000
  C   C1        1.0  0.17640769233372774  0.4020482683706348  0.6860009613799158  1.0000
  C   C2        1.0  0.8235923074212621  0.5979517314871575  0.3139990387007227  1.0000
  C   C3        1.0  0.23412972107940508  0.5488912843564693  0.7378106562276128  1.0000
  C   C4        1.0  0.7658702783667432  0.4511087153997322  0.26218934315411263  1.0000
  C   C5        1.0  0.19618299642560327  0.5341044480265354  0.8358580114047444  1.0000
  C   C6        1.0  0.8038170033293868  0.4658955518312571  0.16414198867589425  1.0000
  C   C7        1.0  0.2851415612322794  0.6737251766280743  0.8994200757340842  1.0000
  C   C8        1.0  0.7148584385227106  0.3262748232297181  0.10057992434655427  1.0000
  C   C9        1.0  0.2450408513776566  0.6601089369299546  0.9972138143443129  1.0000
  C   C10       1.0  0.7549591488541678  0.3398910639944537  0.0027861857349513156  1.0000
  C   C11       1.0  0.33824543823955316  0.801464560161089  0.05893118727938908  1.0000
  C   C12       1.0  0.6617545619922711  0.1985354407633193  0.9410688127998751  1.0000
  C   C13       1.0  0.28614234025386465  0.7892562324900098  0.1541226820506034  1.0000
  C   C14       1.0  0.7138576595011253  0.21074376736778255  0.8458773180300351  1.0000
  C   C15       1.0  0.36897780587374257  0.9289741256518127  0.21365426147670682  1.0000
  C   C16       1.0  0.6310221943580818  0.07102587527259567  0.7863457386025573  1.0000
  C   C17       1.0  0.4218677041892366  0.025135599181317657  0.3693996415140721  1.0000
  C   C18       1.0  0.5781322952569116  0.9748644005748839  0.6306003578676532  1.0000
  C   C19       1.0  0.3025881531265648  0.05952032910810476  0.4186809162258218  1.0000
  C   C20       1.0  0.6974118476317254  0.9404796706483014  0.5813190831621572  1.0000
  C   C21       1.0  0.375555366447423  0.17872160662648046  0.4842213462295686  1.0000
  C   C22       1.0  0.6244446329987253  0.8212783931297212  0.515778653152157  1.0000
  C   C23       1.0  0.5677021420914037  0.26637059614762876  0.5036160654490024  1.0000
  C   C24       1.0  0.43229785945256255  0.7336294047769842  0.4963839346365152  1.0000
  C   C25       1.0  0.6862744202824389  0.22880471538021013  0.4556065644247361  1.0000
  C   C26       1.0  0.3137255799493854  0.7711952855441983  0.544393435654528  1.0000
  C   C27       1.0  0.6158350000870962  0.10946390879899615  0.39038955057663544  1.0000
  C   C28       1.0  0.3841649996678937  0.8905360910587963  0.6096104495040032  1.0000
  C   C29       1.0  0.9907416485542413  0.9039488526045456  0.7961652334485089  1.0000
  C   C30       1.0  0.009258351200748772  0.09605114725324684  0.20383476663212968  1.0000
  C   C31       1.0  0.9191731975234455  0.7893005006910525  0.7273325352565441  1.0000
  C   C32       1.0  0.08082680270837894  0.21069950023335593  0.27266746482272003  1.0000
  C   C33       1.0  0.755306579930686  0.6385536701117577  0.8232206518970654  1.0000
  C   C34       1.0  0.24469341982430395  0.3614463297460347  0.1767793481835732  1.0000
  C   C35       1.0  0.8213516950883007  0.7459867952569308  0.896046034265962  1.0000
  C   C36       1.0  0.1786483059788312  0.25401320460106636  0.10395396582093015  1.0000
  C   C37       1.0  0.9424037397270175  0.8838612250954025  0.8837422860990498  1.0000
  C   C38       1.0  0.05759626002797246  0.1161387747623899  0.11625771398158867  1.0000
  C   C39       1.0  0.01650395330821738  0.0031264434970699377  0.9563237064825256  1.0000
  C   C40       1.0  0.983496048235749  0.9968735574275431  0.043676293602992015  1.0000
  N   N1        1.0  0.8034066678778112  0.6589856429545842  0.7400019140449934  1.0000
  N   N2        1.0  0.19659333187717876  0.3410143569032082  0.2599980860356452  1.0000
  O   O1        1.0  0.4429552327137909  0.047074928951593015  0.18988058180265588  1.0000
  O   O2        1.0  0.557044768353341  0.9529250709064041  0.8101194182842363  1.0000
  O   O3        1.0  0.3478293012197676  0.9062142887878372  0.30543643655460784  1.0000
  O   O4        1.0  0.6521706998473643  0.09378571107015993  0.6945635635322843  1.0000
  F   F1        1.0  0.1158074098877089  0.9759746416649888  0.4028446625411859  1.0000
  F   F2        1.0  0.8841925895584393  0.024025358091212732  0.5971553368405397  1.0000
  F   F3        1.0  0.25228947734751944  0.20669692047127308  0.5296272798880615  1.0000
  F   F4        1.0  0.7477105224074705  0.7933030793865192  0.47037272019257714  1.0000
  F   F5        1.0  0.8759405653040345  0.30700908246753683  0.4722189324615332  1.0000
  F   F6        1.0  0.12405943492778986  0.6929909184568717  0.5277810676177309  1.0000
  F   F7        1.0  0.7359736412238008  0.07119374646410581  0.34855340041705773  1.0000
  F   F8        1.0  0.26402635853118905  0.9288062533936866  0.6514465996635809  1.0000
  S   S1        1.0  0.29556030349846646  0.40032370113314814  0.8875827247938916  1.0000
  S   S2        1.0  0.7044396962565235  0.5996762987246442  0.11241727528674698  1.0000
  S   S3        1.0  0.2850014947702816  0.2937276997424625  0.7605613138291123  1.0000
  S   S4        1.0  0.714998505461543  0.7062723011819461  0.23943868625015183  1.0000
  I   I1        1.0  0.6752138664275901  0.44532064305051955  0.6063808948213275  1.0000
  I   I2        1.0  0.32478613301855813  0.5546793567056819  0.39361910456039795  1.0000
