data_image0
_chemical_formula_structural       H40C76N8O8F16I8
_chemical_formula_sum              "H40 C76 N8 O8 F16 I8"
_cell_length_a       18.536741670731562
_cell_length_b       4.359059949437319
_cell_length_c       24.70809292873661
_cell_angle_alpha    90.0
_cell_angle_beta     107.85819149375337
_cell_angle_gamma    90.0

_space_group_name_H-M_alt    "P 1"
_space_group_IT_number       1

loop_
  _space_group_symop_operation_xyz
  'x, y, z'

loop_
  _atom_site_type_symbol
  _atom_site_label
  _atom_site_symmetry_multiplicity
  _atom_site_fract_x
  _atom_site_fract_y
  _atom_site_fract_z
  _atom_site_occupancy
  H   H1        1.0  0.4817039533557969  0.03746409819875965  0.2761548839189897  1.0000
  H   H2        1.0  0.5182960464683661  0.5374640971162649  0.22384511619477082  1.0000
  H   H3        1.0  0.5182960463554915  0.9625359019303233  0.723845116361419  1.0000
  H   H4        1.0  0.4817039536056246  0.46253590301281816  0.776154883658667  1.0000
  H   H5        1.0  0.31216999816190416  0.49614172438237963  0.17198549277592587  1.0000
  H   H6        1.0  0.6878300022010033  0.9961417255939574  0.32801450733607335  1.0000
  H   H7        1.0  0.6878300019120865  0.5038582734526309  0.828014507077512  1.0000
  H   H8        1.0  0.31216999787298744  0.003858274535125624  0.6719854925173646  1.0000
  H   H9        1.0  0.557898710843926  0.9109554642653118  0.5068584019492385  1.0000
  H   H10       1.0  0.4421012891171903  0.41095546305373404  0.9931415980708477  1.0000
  H   H11       1.0  0.4421012892300648  0.0890445358637712  0.49314159790419954  1.0000
  H   H12       1.0  0.5578987105940981  0.5890445370753491  0.006858402209560991  1.0000
  H   H13       1.0  0.6871210250483333  0.14637608277958256  0.5405375533642115  1.0000
  H   H14       1.0  0.31287897545152754  0.6463760816970878  0.9594624466541133  1.0000
  H   H15       1.0  0.3128789750256575  0.8536239173495005  0.4594624464892264  1.0000
  H   H16       1.0  0.6871210246224632  0.35362391843199525  0.04053755319932462  1.0000
  H   H17       1.0  0.520443160051692  0.2847330902526848  0.3454900814986463  1.0000
  H   H18       1.0  0.479556839772471  0.7847330914642627  0.15450991861511426  1.0000
  H   H19       1.0  0.47955683965959645  0.7152669098763982  0.6545099187817625  1.0000
  H   H20       1.0  0.5204431603015198  0.2152669086648204  0.8454900812383238  1.0000
  H   H21       1.0  0.7755106225020159  0.06458800596131797  0.48296570546196416  1.0000
  H   H22       1.0  0.22448937786089163  0.5645880048788232  0.017034294650035135  1.0000
  H   H23       1.0  0.22448937757197487  0.935411994167765  0.5170342943914739  1.0000
  H   H24       1.0  0.7755106222130992  0.4354119952502598  0.9829657052034029  1.0000
  H   H25       1.0  0.6192194232551045  0.53059955284592  0.3653042822398885  1.0000
  H   H26       1.0  0.380780577107803  0.030599553928414718  0.13469571787211068  1.0000
  H   H27       1.0  0.3807805768188863  0.46940044728316316  0.6346957176135495  1.0000
  H   H28       1.0  0.61921942314223  0.9694004462006683  0.8653042824065369  1.0000
  H   H29       1.0  0.2685886677555642  0.9592787042398369  0.31255438445697104  1.0000
  H   H30       1.0  0.7314113320685988  0.45927870532233156  0.1874456156567894  1.0000
  H   H31       1.0  0.731411331779682  0.04072129588924628  0.6874456153982282  1.0000
  H   H32       1.0  0.2685886680053921  0.5407212948067516  0.8125543841966485  1.0000
  H   H33       1.0  0.22457297905678833  0.605651025822847  0.22832103238515788  1.0000
  H   H34       1.0  0.7754270213061193  0.10565102690534178  0.2716789677268413  1.0000
  H   H35       1.0  0.7754270211932446  0.394348974306236  0.7716789678934894  1.0000
  H   H36       1.0  0.22457297876787155  0.8943489732237413  0.7283210321265966  1.0000
  H   H37       1.0  0.40220489518529445  0.5316758789470569  0.41568456669521375  1.0000
  H   H38       1.0  0.5977951050015708  0.03167587773547905  0.08431543299157597  1.0000
  H   H39       1.0  0.5977951048886962  0.46832412118202615  0.5843154331582242  1.0000
  H   H40       1.0  0.4022048950724199  0.968324122393604  0.915684566861862  1.0000
  C   C1        1.0  0.9383748591547737  0.5745846602369641  0.38202395872663114  1.0000
  C   C2        1.0  0.061625140669389185  0.07458465902538627  0.11797604138712935  1.0000
  C   C3        1.0  0.061625140380472454  0.42541533989211894  0.6179760411285681  1.0000
  C   C4        1.0  0.9383748595806438  0.9254153411036967  0.8820239588915181  1.0000
  C   C5        1.0  0.9593981602409892  0.7153708038363926  0.338436883311636  1.0000
  C   C6        1.0  0.04060184012191841  0.21537080491888738  0.1615631168003632  1.0000
  C   C7        1.0  0.04060184000904394  0.28462919629269046  0.6615631169670115  1.0000
  C   C8        1.0  0.9593981599520723  0.7846291952101957  0.8384368830530747  1.0000
  C   C9        1.0  0.08376148746598236  0.4796562617290669  0.3697705367765616  1.0000
  C   C10       1.0  0.9162385123581807  0.9796562629406447  0.13022946333719895  1.0000
  C   C11       1.0  0.9162385127840507  0.5203437384000161  0.630229463502086  1.0000
  C   C12       1.0  0.08376148771581014  0.020343737188438307  0.869770536516239  1.0000
  C   C13       1.0  0.030966317041552897  0.6701960638043316  0.3322581280773438  1.0000
  C   C14       1.0  0.9690336827826102  0.17019606259275377  0.16774187203641674  1.0000
  C   C15       1.0  0.9690336830324378  0.32980393632475147  0.6677418717760941  1.0000
  C   C16       1.0  0.03096631692867833  0.8298039375363293  0.8322581282439919  1.0000
  C   C17       1.0  0.06239631441032543  0.33508499468756925  0.41292162833397417  1.0000
  C   C18       1.0  0.9376036859525821  0.8350849936050745  0.08707837177802509  1.0000
  C   C19       1.0  0.9376036856636655  0.6649150054415138  0.5870783715194638  1.0000
  C   C20       1.0  0.06239631429745087  0.1649150065240086  0.9129216285006223  1.0000
  C   C21       1.0  0.991094936068609  0.3828553746354017  0.41912998867005685  1.0000
  C   C22       1.0  0.008905063755554032  0.8828553758469795  0.08087001144370361  1.0000
  C   C23       1.0  0.008905064005381868  0.6171446254936813  0.5808700111833811  1.0000
  C   C24       1.0  0.9910949364944789  0.11714462428210352  0.9191299888349438  1.0000
  C   C25       1.0  0.5017709431295572  0.5648165449795687  0.4115851512125114  1.0000
  C   C26       1.0  0.4982290565185637  0.06481654606206345  0.08841484847603963  1.0000
  C   C27       1.0  0.49822905694443365  0.43518345514951434  0.5884148486409265  1.0000
  C   C28       1.0  0.5017709430166826  0.9351834540670196  0.9115851513791596  1.0000
  C   C29       1.0  0.3784098525044323  0.028278064864859575  0.30088659856794153  1.0000
  C   C30       1.0  0.6215901473197306  0.5282780660764373  0.19911340154581894  1.0000
  C   C31       1.0  0.6215901470308139  0.9717219352642235  0.6991134012872577  1.0000
  C   C32       1.0  0.3784098529303023  0.4717219340526456  0.8008865987328284  1.0000
  C   C33       1.0  0.42411433249183045  0.947241735120664  0.2671020691166734  1.0000
  C   C34       1.0  0.5758856678710771  0.4472417362031587  0.2328979309953258  1.0000
  C   C35       1.0  0.5758856677582026  0.05275826500841909  0.732897931161974  1.0000
  C   C36       1.0  0.42411433220291367  0.5527582639259243  0.7671020688581122  1.0000
  C   C37       1.0  0.3302552633340186  0.644666834729525  0.20927486373481297  1.0000
  C   C38       1.0  0.6697447363141021  0.1446668335179472  0.29072513595373806  1.0000
  C   C39       1.0  0.6697447367399721  0.35533316539955806  0.790725136118625  1.0000
  C   C40       1.0  0.3302552632211441  0.8553331666111359  0.7092748639014612  1.0000
  C   C41       1.0  0.577602987370765  0.7011764360787327  0.43313931009862977  1.0000
  C   C42       1.0  0.42239701227735577  0.2011764371612274  0.06686068958992121  1.0000
  C   C43       1.0  0.4223970127032258  0.29882356405035043  0.5668606897548082  1.0000
  C   C44       1.0  0.5776029872578905  0.7988235629678556  0.9331393102652781  1.0000
  C   C45       1.0  0.597734067535079  0.8776490514873135  0.48305355686368356  1.0000
  C   C46       1.0  0.40226593228908397  0.3776490525698083  0.01694644325007698  1.0000
  C   C47       1.0  0.40226593253891174  0.12235094634769694  0.5169464429897543  1.0000
  C   C48       1.0  0.5977340674222044  0.6223509475592748  0.9830535570303317  1.0000
  C   C49       1.0  0.6692431402111725  0.010302778700209703  0.5017453587730935  1.0000
  C   C50       1.0  0.33075685974994384  0.5103027776177149  0.9982546412469928  1.0000
  C   C51       1.0  0.33075686003886057  0.9896972214288733  0.4982546415055541  1.0000
  C   C52       1.0  0.669243140324047  0.4896972225113681  0.0017453586064451404  1.0000
  C   C53       1.0  0.48009308664261097  0.3569382132954703  0.3668795019269364  1.0000
  C   C54       1.0  0.5199069135442542  0.8569382122129756  0.13312049775985332  1.0000
  C   C55       1.0  0.5199069134313798  0.6430617868336127  0.6331204979265016  1.0000
  C   C56       1.0  0.48009308652973653  0.1430617856220349  0.8668795020935846  1.0000
  C   C57       1.0  0.7188736608292645  0.9641880953122771  0.4700689156954577  1.0000
  C   C58       1.0  0.28112633899489853  0.464188096394772  0.02993108441830272  1.0000
  C   C59       1.0  0.2811263394207685  0.0358119048168059  0.5299310845831896  1.0000
  C   C60       1.0  0.7188736610790922  0.5358119037343111  0.9700689154351352  1.0000
  C   C61       1.0  0.6317570113594277  0.6649295246270112  0.4044524712460594  1.0000
  C   C62       1.0  0.3682429882886931  0.16492952341543335  0.0955475284424916  1.0000
  C   C63       1.0  0.3682429881758185  0.33507047550207186  0.5955475286091398  1.0000
  C   C64       1.0  0.6317570117852976  0.8350704767136498  0.9044524714109463  1.0000
  C   C65       1.0  0.4045036884258207  0.24318775889669447  0.3491679372979661  1.0000
  C   C66       1.0  0.5954963113983422  0.7431877601082723  0.15083206281579448  1.0000
  C   C67       1.0  0.5954963111094255  0.7568122412323885  0.6508320625572331  1.0000
  C   C68       1.0  0.4045036888516908  0.25681224002081077  0.8491679374628531  1.0000
  C   C69       1.0  0.3052973545463791  0.9030522442133723  0.28699428668790133  1.0000
  C   C70       1.0  0.6947026452777839  0.403052245295867  0.21300571342585914  1.0000
  C   C71       1.0  0.6947026455276117  0.09694775591571082  0.7130057131655366  1.0000
  C   C72       1.0  0.30529735443350453  0.596947754833216  0.7869942868545495  1.0000
  C   C73       1.0  0.2808772803189895  0.708043737824345  0.2405689092896845  1.0000
  C   C74       1.0  0.719122720043918  0.2080437389068398  0.2594310908223147  1.0000
  C   C75       1.0  0.7191227197550013  0.291956262304738  0.7594310905637535  1.0000
  C   C76       1.0  0.2808772800300728  0.7919562612222432  0.7405689090311233  1.0000
  N   N1        1.0  0.7005686733462526  0.7934153441607151  0.4224320302697851  1.0000
  N   N2        1.0  0.29943132684061274  0.2934153429491373  0.07756796941700468  1.0000
  N   N3        1.0  0.29943132672773826  0.20658465596836795  0.5775679695836529  1.0000
  N   N4        1.0  0.700568673233378  0.7065846571799458  0.9224320304364333  1.0000
  N   N5        1.0  0.4008039373943137  0.760476824923664  0.221929792623591  1.0000
  N   N6        1.0  0.5991960622538071  0.2604768260061588  0.27807020706496  1.0000
  N   N7        1.0  0.5991960626796771  0.23952317291134642  0.7780702072298469  1.0000
  N   N8        1.0  0.4008039372814391  0.7395231741229242  0.7219297927902393  1.0000
  O   O1        1.0  0.4525107882412591  0.6547522913440125  0.4375022514240332  1.0000
  O   O2        1.0  0.5474892119456062  0.15475229013243466  0.062497748262756524  1.0000
  O   O3        1.0  0.5474892118327317  0.34524770878507055  0.5624977484294047  1.0000
  O   O4        1.0  0.4525107881283846  0.8452477099966483  0.9375022515906813  1.0000
  O   O5        1.0  0.35687687382855415  0.3273134635792685  0.37473109349111117  1.0000
  O   O6        1.0  0.6431231259956088  0.8273134624967737  0.12526890662264928  1.0000
  O   O7        1.0  0.6431231262454367  0.6726865365498146  0.6252689063623268  1.0000
  O   O8        1.0  0.3568768737156796  0.17268653763230932  0.8747310936577594  1.0000
  F   F1        1.0  0.9738089909398477  0.23871921746208669  0.4619255723465577  1.0000
  F   F2        1.0  0.026191008884315314  0.7387192163795919  0.038074427767202844  1.0000
  F   F3        1.0  0.026191008771440778  0.7612807826669963  0.5380744279338511  1.0000
  F   F4        1.0  0.9738089911896753  0.2612807837494911  0.9619255720862351  1.0000
  F   F5        1.0  0.04880401096402691  0.8166769948781109  0.2898494180175608  1.0000
  F   F6        1.0  0.9511959886840938  0.3166769936665331  0.21015058167099018  1.0000
  F   F7        1.0  0.9511959891099637  0.18332300525097214  0.710150581835877  1.0000
  F   F8        1.0  0.04880401085115236  0.68332300646255  0.7898494181842091  1.0000
  F   F9        1.0  0.11119993030624886  0.1439306541496377  0.4497337606778402  1.0000
  F   F10       1.0  0.8888000698806164  0.6439306553612155  0.05026623900894955  1.0000
  F   F11       1.0  0.888800069767742  0.8560693459794454  0.5502662391755978  1.0000
  F   F12       1.0  0.11119993019337436  0.35606934476786756  0.9497337608444885  1.0000
  F   F13       1.0  0.9103406033322797  0.9044136753633994  0.3011722836326376  1.0000
  F   F14       1.0  0.08965939703062786  0.4044136764458942  0.19882771647936162  1.0000
  F   F15       1.0  0.08965939691775333  0.09558632476568361  0.6988277166460098  1.0000
  F   F16       1.0  0.9103406030433628  0.5955863236831889  0.8011722833740763  1.0000
  I   I1        1.0  0.8325439807085069  0.6577981567723403  0.39412116958456345  1.0000
  I   I2        1.0  0.16745601911565608  0.1577981578548352  0.1058788305291971  1.0000
  I   I3        1.0  0.1674560190027816  0.34220184335674264  0.6058788306958454  1.0000
  I   I4        1.0  0.8325439809583347  0.8422018422742479  0.8941211693242408  1.0000
  I   I5        1.0  0.19256448971588747  0.413167006393771  0.3638545271429608  1.0000
  I   I6        1.0  0.8074355099322333  0.9131670053112763  0.13614547254559028  1.0000
  I   I7        1.0  0.8074355103581033  0.5868329937353121  0.6361454727104773  1.0000
  I   I8        1.0  0.1925644901417575  0.08683299481780682  0.8638545273078477  1.0000
