data_image0
_chemical_formula_structural       H20B2C26N4O4Cl2
_chemical_formula_sum              "H20 B2 C26 N4 O4 Cl2"
_cell_length_a       6.713576626423514
_cell_length_b       9.507311933227532
_cell_length_c       10.3659408766399
_cell_angle_alpha    111.1361221423646
_cell_angle_beta     94.12050373999558
_cell_angle_gamma    98.55213867898061

_space_group_name_H-M_alt    "P 1"
_space_group_IT_number       1

loop_
  _space_group_symop_operation_xyz
  'x, y, z'

loop_
  _atom_site_type_symbol
  _atom_site_label
  _atom_site_symmetry_multiplicity
  _atom_site_fract_x
  _atom_site_fract_y
  _atom_site_fract_z
  _atom_site_occupancy
  H   H1        1.0  0.46610117987397837  0.69879305462293  0.4783944801774185  1.0000
  H   H2        1.0  0.5338988200897253  0.30120694509693907  0.5216055195292653  1.0000
  H   H3        1.0  0.4518501947108224  0.926877819389709  0.6905411154842263  1.0000
  H   H4        1.0  0.5481498054525885  0.07312218077193397  0.3094588852663776  1.0000
  H   H5        1.0  0.7320324479600041  0.027994727332089873  0.8877178834764797  1.0000
  H   H6        1.0  0.2679675520036994  0.9720052723877792  0.11228211623020405  1.0000
  H   H7        1.0  0.030858936990818275  0.898341982022444  0.8798420252728336  1.0000
  H   H8        1.0  0.9691410629728853  0.101658017697425  0.12015797443385003  1.0000
  H   H9        1.0  0.5149578703313745  0.1937909926758378  0.8169364026144008  1.0000
  H   H10       1.0  0.48504212963232923  0.8062090070440312  0.18306359709228276  1.0000
  H   H11       1.0  0.2594248206173076  0.12575377478903205  0.6082266406146503  1.0000
  H   H12       1.0  0.740575179346396  0.874246224930837  0.39177335909203337  1.0000
  H   H13       1.0  0.8315994789835071  0.33020446422660005  0.8741796594548321  1.0000
  H   H14       1.0  0.1684005209801966  0.6697955354932689  0.12582034025185157  1.0000
  H   H15       1.0  0.08602304334538838  0.39715425584760544  0.08134470432585232  1.0000
  H   H16       1.0  0.9139769566183154  0.6028457438722636  0.9186552953808312  1.0000
  H   H17       1.0  0.5586157023261675  0.47788670415201595  0.2994349744079397  1.0000
  H   H18       1.0  0.44138429763753606  0.5221132955678531  0.700565025298744  1.0000
  H   H19       1.0  0.7434323039480889  0.3043789373159239  0.17070962102297021  1.0000
  H   H20       1.0  0.25656769601561474  0.6956210624039452  0.8292903786837135  1.0000
  B   B1        1.0  0.48141221335731066  0.3440882862836703  0.09784346720499093  1.0000
  B   B2        1.0  0.5185877868091937  0.6559117144957641  0.9021565324921509  1.0000
  C   C1        1.0  0.7541651005154228  0.665585070704671  0.5587930270102583  1.0000
  C   C2        1.0  0.24583489964798794  0.3344149294569719  0.4412069737403455  1.0000
  C   C3        1.0  0.5867137680317461  0.7427904676763584  0.5666591892535701  1.0000
  C   C4        1.0  0.41328623193195746  0.25720953204351066  0.43334081045311346  1.0000
  C   C5        1.0  0.5812178948673471  0.8689693594210555  0.6832810753101924  1.0000
  C   C6        1.0  0.41878210509635666  0.13103064029881362  0.31671892439649135  1.0000
  C   C7        1.0  0.7422034049126343  0.9266006924358461  0.797398152730267  1.0000
  C   C8        1.0  0.2577965950510694  0.07339930728402293  0.2026018469764166  1.0000
  C   C9        1.0  0.9064411901568817  0.8558699709574498  0.7941106873846612  1.0000
  C   C10       1.0  0.09355880980682181  0.14413002876241915  0.20588931232202246  1.0000
  C   C11       1.0  0.9173325737817647  0.7224354557620755  0.676225070705299  1.0000
  C   C12       1.0  0.08266742618193904  0.2775645439577936  0.3237749290013847  1.0000
  C   C13       1.0  0.9198613127735807  0.47254922649264686  0.44130440940840626  1.0000
  C   C14       1.0  0.0801386871901229  0.5274507732272221  0.5586955902982774  1.0000
  C   C15       1.0  0.3199037081363408  0.2995386252370677  0.9655397877729212  1.0000
  C   C16       1.0  0.680096291827363  0.7004613744828013  0.03446021193376243  1.0000
  C   C17       1.0  0.36452542970720103  0.22251810892727317  0.8304420101131753  1.0000
  C   C18       1.0  0.6354745702565026  0.7774818907925959  0.1695579895935084  1.0000
  C   C19       1.0  0.22305694651853245  0.18452454837021068  0.7124383761091393  1.0000
  C   C20       1.0  0.7769430534451712  0.8154754513496583  0.2875616235975444  1.0000
  C   C21       1.0  0.032410631897967744  0.22425602717748774  0.7300752598564784  1.0000
  C   C22       1.0  0.9675893682654431  0.7757439729841551  0.2699247408941256  1.0000
  C   C23       1.0  0.9812227566008789  0.30044440636062786  0.8619235086549423  1.0000
  C   C24       1.0  0.018777243562531958  0.699555593801015  0.13807649209566156  1.0000
  C   C25       1.0  0.12592694113265765  0.33726055512386754  0.9781082012549044  1.0000
  C   C26       1.0  0.874073058831046  0.6627394445960014  0.02189179845177922  1.0000
  N   N1        1.0  0.7590083911503333  0.5426101047925568  0.44453662665138094  1.0000
  N   N2        1.0  0.2409916088133704  0.4573898949273123  0.5554633730553028  1.0000
  N   N3        1.0  0.07519523215522322  0.6509460072870391  0.6742075396638014  1.0000
  N   N4        1.0  0.9248047678084805  0.34905399243283003  0.32579246004288226  1.0000
  O   O1        1.0  0.4456455852703757  0.44872836863265175  0.22129914659291716  1.0000
  O   O2        1.0  0.5543544148930352  0.5512716315289911  0.7787008541576868  1.0000
  O   O3        1.0  0.6488201460112023  0.274787725904798  0.08270648624295016  1.0000
  O   O4        1.0  0.35117985395250134  0.725212273815071  0.9172935134637336  1.0000
  Cl  Cl1       1.0  0.8530098398821885  0.17638865368416415  0.5838081295046534  1.0000
  Cl  Cl2       1.0  0.1469901602812222  0.8236113464774787  0.4161918712459506  1.0000
