data_image0
_chemical_formula_structural       H34B2C32N4O4
_chemical_formula_sum              "H34 B2 C32 N4 O4"
_cell_length_a       7.918369367415873
_cell_length_b       10.18670922479988
_cell_length_c       10.338095404666632
_cell_angle_alpha    109.12699860022472
_cell_angle_beta     105.92550005285658
_cell_angle_gamma    103.27597194088503

_space_group_name_H-M_alt    "P 1"
_space_group_IT_number       1

loop_
  _space_group_symop_operation_xyz
  'x, y, z'

loop_
  _atom_site_type_symbol
  _atom_site_label
  _atom_site_symmetry_multiplicity
  _atom_site_fract_x
  _atom_site_fract_y
  _atom_site_fract_z
  _atom_site_occupancy
  H   H1        1.0  0.7795605185712972  0.5875808631786655  0.8858484118146941  1.0000
  H   H2        1.0  0.22043948041837802  0.41241913670371944  0.11415158784557615  1.0000
  H   H3        1.0  0.2738845254794997  0.5202189788442901  0.8213747910990394  1.0000
  H   H4        1.0  0.7261154740504046  0.47978102151412794  0.17862520966809348  1.0000
  H   H5        1.0  0.9496176246828195  0.4193925350199293  0.80883778156039  1.0000
  H   H6        1.0  0.0503823755661534  0.5806074648535893  0.19116221809728934  1.0000
  H   H7        1.0  0.9290339232964167  0.8608511462444657  0.9792292672861179  1.0000
  H   H8        1.0  0.0709660774927852  0.13914885410508576  0.02077073347842391  1.0000
  H   H9        1.0  0.06094748600141447  0.9799453208584016  0.6683385624108119  1.0000
  H   H10       1.0  0.9390525135284898  0.02005467950001643  0.33166143835632095  1.0000
  H   H11       1.0  0.6307282339944426  0.2139472321999026  0.7499574215690756  1.0000
  H   H12       1.0  0.36927176625453034  0.7860527676736159  0.25004257808860364  1.0000
  H   H13       1.0  0.9426167849949523  0.7212192261905472  0.5830941085069313  1.0000
  H   H14       1.0  0.0573832152540207  0.27878077368297133  0.416905891150748  1.0000
  H   H15       1.0  0.10170364585174568  0.6245096909724234  0.5985690082035422  1.0000
  H   H16       1.0  0.8982963549374564  0.37549030937712824  0.4014309925609997  1.0000
  H   H17       1.0  0.008657012122552845  0.6423843616320518  0.4328762735422387  1.0000
  H   H18       1.0  0.9913429886666492  0.35761563871749974  0.5671237272223032  1.0000
  H   H19       1.0  0.35350420139275  0.3004106107190855  0.9008306376371525  1.0000
  H   H20       1.0  0.646495798856223  0.699589389154433  0.09916936202052679  1.0000
  H   H21       1.0  0.16976554739636496  0.24966046340590775  0.7295437034053016  1.0000
  H   H22       1.0  0.8302344521335393  0.7503395369525103  0.27045629736183124  1.0000
  H   H23       1.0  0.4068518896310938  0.34425374414801563  0.7598216343105032  1.0000
  H   H24       1.0  0.5931481093585814  0.6557462557343694  0.24017836534976708  1.0000
  H   H25       1.0  0.8039633722942094  0.9378217240843094  0.7404369437672189  1.0000
  H   H26       1.0  0.19603662795476345  0.06217827578920901  0.2595630558904604  1.0000
  H   H27       1.0  0.8286676551644205  0.09027368614052343  0.6902699444152033  1.0000
  H   H28       1.0  0.17133234562478156  0.9097263142090282  0.3097300563493386  1.0000
  H   H29       1.0  0.7271417325121386  0.9062651453865933  0.550677123428338  1.0000
  H   H30       1.0  0.2728582677368343  0.09373485448692513  0.44932287622934136  1.0000
  H   H31       1.0  0.43658720794841216  0.5204134095719413  0.38830096821754057  1.0000
  H   H32       1.0  0.5634127923005607  0.47958659030157724  0.6116990314401388  1.0000
  H   H33       1.0  0.5123451052622862  0.6952001305196597  0.7599416544996624  1.0000
  H   H34       1.0  0.48765489498668674  0.3047998693538588  0.24005834515801688  1.0000
  B   B1        1.0  0.4360411302980665  0.689857492683468  0.5556015257317066  1.0000
  B   B2        1.0  0.5639588704911356  0.3101425076660837  0.4443984750328353  1.0000
  C   C1        1.0  0.5496300950892764  0.95101526720059  0.97583501888216  1.0000
  C   C2        1.0  0.45036990569992574  0.04898473314896173  0.024164981882382117  1.0000
  C   C3        1.0  0.19164324840003658  0.848646536836891  0.9586174711334485  1.0000
  C   C4        1.0  0.8083567502887459  0.15135346204284503  0.04138252854083881  1.0000
  C   C5        1.0  0.004339528956983052  0.7864258506310904  0.9469692200956625  1.0000
  C   C6        1.0  0.9956604712919901  0.2135741492424283  0.05303077956201694  1.0000
  C   C7        1.0  0.9224547800007392  0.6356976038756771  0.8951178209261156  1.0000
  C   C8        1.0  0.07754522024823361  0.3643023959978413  0.10488217873156361  1.0000
  C   C9        1.0  0.29083556948931805  0.7493795152671171  0.9112522337098858  1.0000
  C   C10       1.0  0.7091644297396936  0.2506204840886519  0.08874776707126401  1.0000
  C   C11       1.0  0.19895482051715543  0.5933787472578939  0.8569810142374577  1.0000
  C   C12       1.0  0.8010451802720465  0.4066212530916577  0.14301898652708425  1.0000
  C   C13       1.0  0.020297567108526593  0.5386328008781236  0.8505369840309589  1.0000
  C   C14       1.0  0.9797024336806754  0.46136719947142807  0.14946301673358295  1.0000
  C   C15       1.0  0.398445811186903  0.8405431063381316  0.6074545454255023  1.0000
  C   C16       1.0  0.601554189602299  0.15945689401142013  0.3925454553390397  1.0000
  C   C17       1.0  0.2222700316066223  0.8435154554642078  0.6102816632530681  1.0000
  C   C18       1.0  0.7777299691825798  0.15648454488534383  0.38971833751147383  1.0000
  C   C19       1.0  0.19759544031545082  0.9795692183270007  0.6663090842344437  1.0000
  C   C20       1.0  0.8024045604737512  0.020430782022550966  0.3336909165300982  1.0000
  C   C21       1.0  0.34353508200137706  0.11438245676221892  0.718947928696854  1.0000
  C   C22       1.0  0.6564649187878251  0.8856175435873328  0.281052072067688  1.0000
  C   C23       1.0  0.516691202942371  0.11012008475011668  0.7138252536592786  1.0000
  C   C24       1.0  0.48330879784683106  0.8898799155994349  0.28617474710526325  1.0000
  C   C25       1.0  0.5462616967273409  0.9759384304690794  0.6598303600779433  1.0000
  C   C26       1.0  0.453738303521632  0.024061569404439223  0.3401696395797361  1.0000
  C   C27       1.0  0.0604385379320092  0.7013640727390809  0.5538789263899047  1.0000
  C   C28       1.0  0.9395614610576662  0.2986359271433043  0.4461210732703657  1.0000
  C   C29       1.0  0.31654219621154533  0.26021983881005706  0.7802737367646716  1.0000
  C   C30       1.0  0.6834578040374276  0.7397801610634614  0.21972626289300778  1.0000
  C   C31       1.0  0.7365909207393999  0.9775165256033593  0.6602396351513471  1.0000
  C   C32       1.0  0.263409079509573  0.022483474270159225  0.33976036450633224  1.0000
  N   N1        1.0  0.46524877385451135  0.8020992067518651  0.9167017023006182  1.0000
  N   N2        1.0  0.5347512263944616  0.19790079312165348  0.08329829735706118  1.0000
  N   N3        1.0  0.2721885272497381  0.996025243656704  0.012284542004942892  1.0000
  N   N4        1.0  0.7278114732385713  0.003974755690198644  0.987715458773616  1.0000
  O   O1        1.0  0.5021724087139674  0.6346616033829057  0.658128339120516  1.0000
  O   O2        1.0  0.49782759153500555  0.3653383964906129  0.3418716605371634  1.0000
  O   O3        1.0  0.405745717548598  0.6127788473650373  0.411126975204044  1.0000
  O   O4        1.0  0.5942542819813064  0.3872211529933808  0.588873025563089  1.0000
