data_image0
_chemical_formula_structural       H44B4C56N8O8F8
_chemical_formula_sum              "H44 B4 C56 N8 O8 F8"
_cell_length_a       6.489066338867713
_cell_length_b       24.362856074625654
_cell_length_c       9.196738067968715
_cell_angle_alpha    90.0
_cell_angle_beta     114.93560152680269
_cell_angle_gamma    90.0

_space_group_name_H-M_alt    "P 1"
_space_group_IT_number       1

loop_
  _space_group_symop_operation_xyz
  'x, y, z'

loop_
  _atom_site_type_symbol
  _atom_site_label
  _atom_site_symmetry_multiplicity
  _atom_site_fract_x
  _atom_site_fract_y
  _atom_site_fract_z
  _atom_site_occupancy
  H   H1        1.0  0.38649343651558143  0.726612348969927  0.09574842059318321  1.0000
  H   H2        1.0  0.6135065641965285  0.226612348859629  0.40425158014107626  1.0000
  H   H3        1.0  0.6135065643587297  0.273387651250669  0.9042515802453185  1.0000
  H   H4        1.0  0.38649343667778274  0.773387651360967  0.5957484206974255  1.0000
  H   H5        1.0  0.8017000283294765  0.7169511036184368  0.2704022783579775  1.0000
  H   H6        1.0  0.19829997164297858  0.21695110350813887  0.22959772117729688  1.0000
  H   H7        1.0  0.19829997180517994  0.2830488966021591  0.7295977212815391  1.0000
  H   H8        1.0  0.8017000269616039  0.7830488963019963  0.7704022784803021  1.0000
  H   H9        1.0  0.0805996099977171  0.7820892957556403  0.23991117799539433  1.0000
  H   H10       1.0  0.9194003899747382  0.28208929564534235  0.26008882153988006  1.0000
  H   H11       1.0  0.9194003901369394  0.21791070446495564  0.7600888216441223  1.0000
  H   H12       1.0  0.08059961015991847  0.7179107041647927  0.7399111780996366  1.0000
  H   H13       1.0  0.49170035015250735  0.9685176995555749  0.81216856211112  1.0000
  H   H14       1.0  0.5082996486142767  0.46851769944527694  0.6878314376507213  1.0000
  H   H15       1.0  0.5082996484520752  0.03148230025456017  0.18783143754647902  1.0000
  H   H16       1.0  0.4917003522600346  0.5314823003648581  0.3121685631877805  1.0000
  H   H17       1.0  0.32634311945526445  0.9061226266895805  0.6020681856673673  1.0000
  H   H18       1.0  0.6736568793115194  0.4061226269897435  0.897931814094474  1.0000
  H   H19       1.0  0.6736568791493182  0.0938773731205545  0.3979318139902317  1.0000
  H   H20       1.0  0.3263431200327178  0.5938773732308525  0.10206818676211021  1.0000
  H   H21       1.0  0.44637694989542376  0.9232427138715762  0.13299247826906452  1.0000
  H   H22       1.0  0.5536230500770314  0.4232427137612781  0.3670075212662099  1.0000
  H   H23       1.0  0.5536230502392328  0.07675728634901989  0.867007521370452  1.0000
  H   H24       1.0  0.4463769500576251  0.576757286048857  0.6329924783733067  1.0000
  H   H25       1.0  0.5848448845991672  0.8399292516164661  0.30734056998723064  1.0000
  H   H26       1.0  0.41515511458286875  0.33992925150616815  0.19265943076511124  1.0000
  H   H27       1.0  0.41515511474507016  0.16007074860412984  0.6926594308693536  1.0000
  H   H28       1.0  0.5848448847613685  0.660070748303967  0.8073405700914729  1.0000
  H   H29       1.0  0.8291062027499512  0.8528212294304764  0.60180807114413  1.0000
  H   H30       1.0  0.17089379754690673  0.35282122932017845  0.8981919285996289  1.0000
  H   H31       1.0  0.17089379738470542  0.14717877037965862  0.39819192849538665  1.0000
  H   H32       1.0  0.8291062025877498  0.6471787704899566  0.10180807103988776  1.0000
  H   H33       1.0  0.02322467939482104  0.9206765077663274  0.8325290415156759  1.0000
  H   H34       1.0  0.9767753193719629  0.4206765076560294  0.6674709582461654  1.0000
  H   H35       1.0  0.9767753207398355  0.0793234924542686  0.16747095812384083  1.0000
  H   H36       1.0  0.02322467923261961  0.5793234921541057  0.3325290414114336  1.0000
  H   H37       1.0  0.11086775691979137  0.02025460883931205  0.9156871804743867  1.0000
  H   H38       1.0  0.8891322418469926  0.5202546089496101  0.5843128192874546  1.0000
  H   H39       1.0  0.8891322416847912  0.9797453913812839  0.08431281918321239  1.0000
  H   H40       1.0  0.11086775675758997  0.4797453912709859  0.41568718037014435  1.0000
  H   H41       1.0  0.9343448129376615  0.09266666490516094  0.7099161148406052  1.0000
  H   H42       1.0  0.06565518656877722  0.592666665015459  0.7900838861202212  1.0000
  H   H43       1.0  0.06565518640657585  0.9073333349049741  0.2900838860159789  1.0000
  H   H44       1.0  0.9343448143055341  0.40733333520513704  0.20991611471828064  1.0000
  B   B1        1.0  0.49768669835762  0.8859205757275584  0.8320874393457223  1.0000
  B   B2        1.0  0.5023133004091638  0.38592057561726034  0.6679125604161189  1.0000
  B   B3        1.0  0.5023133025166912  0.11407942449303762  0.16791256149277947  1.0000
  B   B4        1.0  0.49768669819541866  0.6140794246033355  0.33208743924148004  1.0000
  C   C1        1.0  0.586186619277163  0.836702832687617  0.9566602974791443  1.0000
  C   C2        1.0  0.41381338101969495  0.33670283257731903  0.5433397022646146  1.0000
  C   C3        1.0  0.4138133808574935  0.163297167532979  0.04333970216037226  1.0000
  C   C4        1.0  0.5861866191149616  0.663297167643277  0.45666029737490216  1.0000
  C   C5        1.0  0.44065727367014795  0.7985664911538473  0.9776768903290923  1.0000
  C   C6        1.0  0.559342725096636  0.2985664910435493  0.522323109432749  1.0000
  C   C7        1.0  0.5593427256740893  0.2014335090667487  0.02232311052749188  1.0000
  C   C8        1.0  0.44065727350794653  0.7014335087665857  0.47767689022485005  1.0000
  C   C9        1.0  0.5093230795720035  0.7554340239758935  0.08676809243359428  1.0000
  C   C10       1.0  0.49067691961003246  0.25543402386559566  0.4132319083187477  1.0000
  C   C11       1.0  0.4906769197722337  0.24456597583424144  0.9132319084229898  1.0000
  C   C12       1.0  0.5093230797342049  0.7445659759445394  0.5867680925378366  1.0000
  C   C13       1.0  0.742105961938119  0.7499045643104357  0.18250483100831186  1.0000
  C   C14       1.0  0.25789403650426235  0.24990456461059857  0.31749516854504495  1.0000
  C   C15       1.0  0.2578940366664636  0.2500954354996994  0.8174951686492871  1.0000
  C   C16       1.0  0.7421059621003203  0.7500954356099974  0.6825048311125541  1.0000
  C   C17       1.0  0.8987262977840601  0.7862443578587831  0.16763179142103346  1.0000
  C   C18       1.0  0.10127370218839514  0.28624435774848517  0.3323682081142409  1.0000
  C   C19       1.0  0.10127370235059645  0.21375564195135194  0.8323682082184831  1.0000
  C   C20       1.0  0.8987262979462614  0.7137556420616499  0.6676317915252757  1.0000
  C   C21       1.0  0.815384028317509  0.8281837535055926  0.05571741860611193  1.0000
  C   C22       1.0  0.18461597165494617  0.3281837538057555  0.44428258092916245  1.0000
  C   C23       1.0  0.1846159718171475  0.17181624630454248  0.9442825810334047  1.0000
  C   C24       1.0  0.8153840284797104  0.6718162464148405  0.5557174187103542  1.0000
  C   C25       1.0  0.5483350119590712  0.9274141016468315  0.2618551802717757  1.0000
  C   C26       1.0  0.4516649864833101  0.4274141015365335  0.2381448192815811  1.0000
  C   C27       1.0  0.4516649866455114  0.0725858985737645  0.7381448193858234  1.0000
  C   C28       1.0  0.5483350121212724  0.5725858982736016  0.7618551803760178  1.0000
  C   C29       1.0  0.6281013579268192  0.8806421937674919  0.3605085551761818  1.0000
  C   C30       1.0  0.371898642045636  0.38064219406765476  0.13949144435909264  1.0000
  C   C31       1.0  0.3718986422078373  0.11935780604264319  0.6394914444633348  1.0000
  C   C32       1.0  0.6281013580890206  0.6193578061529412  0.860508555280424  1.0000
  C   C33       1.0  0.7614496127481805  0.8878338239057367  0.521958021414855  1.0000
  C   C34       1.0  0.23855038754867747  0.3878338237954388  0.9780419783289039  1.0000
  C   C35       1.0  0.23855038738647596  0.11216617631485923  0.47804197822466155  1.0000
  C   C36       1.0  0.7614496125859791  0.6121661760146964  0.021958021310612807  1.0000
  C   C37       1.0  0.8142200091080232  0.9417699345150586  0.5841966527138852  1.0000
  C   C38       1.0  0.18577998965876066  0.4417699344047607  0.9158033470479559  1.0000
  C   C39       1.0  0.18577998949655936  0.05823006570553729  0.41580334694371374  1.0000
  C   C40       1.0  0.8142200089458219  0.5582300658158352  0.08419665260964304  1.0000
  C   C41       1.0  0.9532317432725191  0.9541690390812355  0.7471067759125258  1.0000
  C   C42       1.0  0.0467682570243386  0.4541690389709375  0.7528932238312329  1.0000
  C   C43       1.0  0.04676825686213731  0.04583096113936046  0.2528932237269908  1.0000
  C   C44       1.0  0.9532317438499726  0.5458309608391976  0.24710677700726869  1.0000
  C   C45       1.0  0.9988310309747499  0.00822755794255046  0.7934956913350043  1.0000
  C   C46       1.0  0.0011689685316886554  0.5082275576423876  0.706504309625822  1.0000
  C   C47       1.0  0.001168968369487312  0.9917724422780456  0.20650430952157978  1.0000
  C   C48       1.0  0.9988310308125486  0.4917724421677475  0.2934956912307621  1.0000
  C   C49       1.0  0.9019685884407259  0.049528061747109456  0.6766335777915095  1.0000
  C   C50       1.0  0.098031411856132  0.5495280618574074  0.8233664219522494  1.0000
  C   C51       1.0  0.09803141169393062  0.9504719380630257  0.3233664218480071  1.0000
  C   C52       1.0  0.9019685890181792  0.4504719379527276  0.17663357888625242  1.0000
  C   C53       1.0  0.7256616082207299  0.9864753006126883  0.4748384478428487  1.0000
  C   C54       1.0  0.2743383917517252  0.48647530050239035  0.02516155169242569  1.0000
  C   C55       1.0  0.27433839191392645  0.01352469919744674  0.5251615517966678  1.0000
  C   C56       1.0  0.7256616083829314  0.5135246993077447  0.9748384479470908  1.0000
  N   N1        1.0  0.594466321713315  0.9784537107218567  0.3159925105790545  1.0000
  N   N2        1.0  0.40553367825914016  0.47845371061155884  0.1840074889562199  1.0000
  N   N3        1.0  0.40553367689126757  0.021546289498739147  0.6840074890785446  1.0000
  N   N4        1.0  0.5944663218755163  0.5215462891985763  0.8159925106832967  1.0000
  N   N5        1.0  0.7705059708354602  0.039647631502696956  0.5234845376394621  1.0000
  N   N6        1.0  0.22949403020105213  0.5396476316129949  0.9765154633032817  1.0000
  N   N7        1.0  0.2294940300388509  0.960352368717899  0.4765154631990396  1.0000
  N   N8        1.0  0.770505970673259  0.46035236860760104  0.023484537535219948  1.0000
  O   O1        1.0  0.37830987548941875  0.872770020266465  0.6746256623022219  1.0000
  O   O2        1.0  0.6216901248074391  0.37277002015616706  0.825374337441537  1.0000
  O   O3        1.0  0.6216901246452379  0.127229979954131  0.3253743373372948  1.0000
  O   O4        1.0  0.3783098753272173  0.6272299796539681  0.1746256621979796  1.0000
  O   O5        1.0  0.5485694514846656  0.9376048255602967  0.8939572155344317  1.0000
  O   O6        1.0  0.45143054955184686  0.43760482544999874  0.6060427854083121  1.0000
  O   O7        1.0  0.4514305493896455  0.062395174660299244  0.10604278530406996  1.0000
  O   O8        1.0  0.5485694513224644  0.5623951747705973  0.3939572154301896  1.0000
  F   F1        1.0  0.21194382869094827  0.8047893736244252  0.885109345636286  1.0000
  F   F2        1.0  0.7880561716059096  0.30478937351412716  0.614890654107473  1.0000
  F   F3        1.0  0.7880561714437082  0.1952106265961708  0.11489065400323069  1.0000
  F   F4        1.0  0.2119438292684017  0.6952106262960078  0.38510934673102887  1.0000
  F   F5        1.0  0.9707201956010089  0.8634530362763814  0.04005917812958595  1.0000
  F   F6        1.0  0.0292798043714463  0.3634530361660834  0.4599408214056885  1.0000
  F   F7        1.0  0.02927980453364756  0.13654696394421464  0.9599408215099305  1.0000
  F   F8        1.0  0.9707201957632102  0.6365469640545126  0.5400591782338282  1.0000
