data_image0
_chemical_formula_structural       H28C56N12S4
_chemical_formula_sum              "H28 C56 N12 S4"
_cell_length_a       8.171990547373525
_cell_length_b       17.50067217031042
_cell_length_c       7.854121323709626
_cell_angle_alpha    97.86919004718214
_cell_angle_beta     103.90234821714661
_cell_angle_gamma    88.6672321074052

_space_group_name_H-M_alt    "P 1"
_space_group_IT_number       1

loop_
  _space_group_symop_operation_xyz
  'x, y, z'

loop_
  _atom_site_type_symbol
  _atom_site_label
  _atom_site_symmetry_multiplicity
  _atom_site_fract_x
  _atom_site_fract_y
  _atom_site_fract_z
  _atom_site_occupancy
  H   H1        1.0  0.4014468183671061  0.3888914083322747  0.064472421716817  1.0000
  H   H2        1.0  0.598553181040671  0.6111085917040654  0.9355275782139494  1.0000
  H   H3        1.0  0.08788255766061083  0.4254619238384807  0.47702831879587343  1.0000
  H   H4        1.0  0.9121174417471662  0.5745380761978593  0.5229716811348929  1.0000
  H   H5        1.0  0.5105067347243905  0.5170490511189983  0.17150224972341127  1.0000
  H   H6        1.0  0.4894932659440322  0.48295094892110957  0.8284977505148968  1.0000
  H   H7        1.0  0.21163709860685664  0.5520774836045992  0.5624418587944686  1.0000
  H   H8        1.0  0.7883629008009204  0.44792251643174086  0.4375581411362978  1.0000
  H   H9        1.0  0.6023290779731667  0.6172742898594723  0.2494594432958952  1.0000
  H   H10       1.0  0.3976709226952559  0.3827257101806356  0.7505405569424126  1.0000
  H   H11       1.0  0.26264675608553717  0.6574987058724187  0.6019645063234036  1.0000
  H   H12       1.0  0.73735324332224  0.34250129416392144  0.39803549360736273  1.0000
  H   H13       1.0  0.7111046773590526  0.7459088592502522  0.32476001349787464  1.0000
  H   H14       1.0  0.2888953220487245  0.2540911407860878  0.6752399864328917  1.0000
  H   H15       1.0  0.3614615098012549  0.7870212481293823  0.7024266139754816  1.0000
  H   H16       1.0  0.6385384896065222  0.2129787519069578  0.29757338595528493  1.0000
  H   H17       1.0  0.21173964256960404  0.056290066930824265  0.8692550694086874  1.0000
  H   H18       1.0  0.7882603580988188  0.9437099331092834  0.13074493082962058  1.0000
  H   H19       1.0  0.8658001304574541  0.07972190923471302  0.21625030777352447  1.0000
  H   H20       1.0  0.134199868950323  0.920278090801627  0.7837496921572419  1.0000
  H   H21       1.0  0.5508376245415342  0.10948577118443191  0.9042952682849207  1.0000
  H   H22       1.0  0.44916237612688864  0.8905142288556758  0.09570473195338719  1.0000
  H   H23       1.0  0.8903280088423969  0.08517483288341196  0.5513646568201106  1.0000
  H   H24       1.0  0.10967199182602569  0.9148251671566959  0.4486353434181973  1.0000
  H   H25       1.0  0.6341032328660239  0.24495150875565433  0.9930069278919897  1.0000
  H   H26       1.0  0.3658967665417532  0.7550484912806857  0.006993072038776633  1.0000
  H   H27       1.0  0.9727890143628891  0.2204567651649679  0.6389853648322555  1.0000
  H   H28       1.0  0.027210985044887802  0.7795432348713721  0.3610146350985108  1.0000
  C   C1        1.0  0.3523164963269789  0.4249025093855672  0.16494264759481783  1.0000
  C   C2        1.0  0.6476835043414437  0.5750974906545406  0.8350573526434901  1.0000
  C   C3        1.0  0.16912102384417654  0.4462240357046458  0.40094916099713435  1.0000
  C   C4        1.0  0.8308789755636006  0.5537759643316942  0.5990508389336321  1.0000
  C   C5        1.0  0.4117639403002457  0.49828154794840607  0.22818113214658808  1.0000
  C   C6        1.0  0.588236060359478  0.5017184520882156  0.7718188668153178  1.0000
  C   C7        1.0  0.24150316909532318  0.5181108187714317  0.44706692978360735  1.0000
  C   C8        1.0  0.7584968303124539  0.4818891812649084  0.5529330701471591  1.0000
  C   C9        1.0  0.357393894115603  0.548151703797725  0.36254886779350715  1.0000
  C   C10       1.0  0.642606105292174  0.45184829623861505  0.6374511321372592  1.0000
  C   C11       1.0  0.4237165369241016  0.6260115783757487  0.4182511483694772  1.0000
  C   C12       1.0  0.576283463744321  0.37398842166435897  0.5817488518688307  1.0000
  C   C13       1.0  0.5503918614794947  0.6545101012714817  0.34582097189473443  1.0000
  C   C14       1.0  0.44960813918458015  0.3454898981917814  0.6541790281741461  1.0000
  C   C15       1.0  0.3625465947118755  0.676372730603607  0.5470079685666592  1.0000
  C   C16       1.0  0.6374534059521991  0.3236272688596561  0.4529920315022213  1.0000
  C   C17       1.0  0.6178927612463381  0.7273798029522711  0.38949732098840284  1.0000
  C   C18       1.0  0.3821072394220846  0.2726201970878367  0.6105026792499051  1.0000
  C   C19       1.0  0.4161547604603124  0.7507482696931098  0.6066414213325791  1.0000
  C   C20       1.0  0.5838452389474645  0.2492517303432302  0.39335857859818724  1.0000
  C   C21       1.0  0.20881814643738017  0.194773208060973  0.033945584393022976  1.0000
  C   C22       1.0  0.7911818542310426  0.8052267919791348  0.9660544158452848  1.0000
  C   C23       1.0  0.09212912202507849  0.1576766847239981  0.10273100518234836  1.0000
  C   C24       1.0  0.9078708773826984  0.8423233153123421  0.8972689947484179  1.0000
  C   C25       1.0  0.020979275403802122  0.20593835937861982  0.2248303781625922  1.0000
  C   C26       1.0  0.9790207240039749  0.7940616406577202  0.7751696217681742  1.0000
  C   C27       1.0  0.11976319267726686  0.031521724567282146  0.926502968432232  1.0000
  C   C28       1.0  0.8802368079911559  0.9684782754728255  0.0734970318060759  1.0000
  C   C29       1.0  0.04672815435791122  0.07876068544324542  0.0516583729937088  1.0000
  C   C30       1.0  0.9532718450498657  0.9212393145930947  0.9483416269370576  1.0000
  C   C31       1.0  0.9252722008984835  0.04459721682691489  0.12292269220061258  1.0000
  C   C32       1.0  0.07472779850929351  0.9554027832094252  0.8770773077301538  1.0000
  C   C33       1.0  0.5536861536577385  0.9700836044290075  0.7400477278114542  1.0000
  C   C34       1.0  0.4463138470106842  0.029916395611100294  0.25995227242685365  1.0000
  C   C35       1.0  0.6694373271266633  0.007055388492009802  0.6701564102597258  1.0000
  C   C36       1.0  0.33056267228111363  0.9929446115443303  0.3298435896710406  1.0000
  C   C37       1.0  0.741969868891561  0.9595188069382121  0.5482502442638628  1.0000
  C   C38       1.0  0.2580301305162159  0.04048119309812788  0.4517497556669036  1.0000
  C   C39       1.0  0.6422672539291624  0.13400297973846886  0.8458107474673313  1.0000
  C   C40       1.0  0.3577327454786147  0.8659970202978712  0.15418925246343507  1.0000
  C   C41       1.0  0.7129006124503819  0.08651500929322165  0.7193031131981382  1.0000
  C   C42       1.0  0.2870993869573952  0.9134849907431184  0.28069688673262805  1.0000
  C   C43       1.0  0.8331567157203852  0.12037597857900577  0.6465633811064785  1.0000
  C   C44       1.0  0.16684328368739182  0.8796240214573343  0.3534366188242879  1.0000
  C   C45       1.0  0.6905569583766595  0.2099161313265403  0.8969142073161481  1.0000
  C   C46       1.0  0.3094430410224185  0.7900838687063136  0.10308579133821615  1.0000
  C   C47       1.0  0.8119338993070758  0.24362337426558317  0.8252529056576077  1.0000
  C   C48       1.0  0.18806610010070118  0.7563766257707569  0.1747470942731587  1.0000
  C   C49       1.0  0.8809342521746268  0.19627488745930524  0.6973680372637717  1.0000
  C   C50       1.0  0.11906574849379577  0.8037251125808026  0.3026319629745362  1.0000
  C   C51       1.0  0.7947973315191872  0.3695983848709749  0.005485027241017919  1.0000
  C   C52       1.0  0.20520266914923535  0.6304016151691327  0.9945149729972899  1.0000
  C   C53       1.0  0.8617682757965778  0.3225704349932971  0.8787968081927318  1.0000
  C   C54       1.0  0.1382317236111992  0.6774295650430431  0.12120319173803464  1.0000
  C   C55       1.0  0.980822175067716  0.3571369942532568  0.8092114905454381  1.0000
  C   C56       1.0  0.019177825600706654  0.6428630057868511  0.19078850969286984  1.0000
  N   N1        1.0  0.3042065464172537  0.22913053582574372  0.9821324544242457  1.0000
  N   N2        1.0  0.6957934529905233  0.7708694642105963  0.01786754550652055  1.0000
  N   N3        1.0  0.9646301210126793  0.24860942935495556  0.3241724345645166  1.0000
  N   N4        1.0  0.03536987965574336  0.7513905706851522  0.6758275656737913  1.0000
  N   N5        1.0  0.45784719562272475  0.9368122864411417  0.7936607516452676  1.0000
  N   N6        1.0  0.5421528050456978  0.06318771359896612  0.20633924859304034  1.0000
  N   N7        1.0  0.7993780965785263  0.9182125623596769  0.447370739974911  1.0000
  N   N8        1.0  0.20062190282925077  0.08178743767666322  0.5526292599558553  1.0000
  N   N9        1.0  0.7365197793050916  0.4087314911723062  0.10922602774553744  1.0000
  N   N10       1.0  0.2634802213633311  0.5912685088678017  0.8907739724927705  1.0000
  N   N11       1.0  0.07850533128322187  0.3864383736214957  0.7501420377872349  1.0000
  N   N12       1.0  0.921494668124555  0.6135616264148442  0.24985796214353148  1.0000
  S   S1        1.0  0.20446507801749933  0.3795914712048157  0.23538907715045151  1.0000
  S   S2        1.0  0.7955349226509233  0.6204085288352922  0.7646109230878564  1.0000
  S   S3        1.0  0.5654888837776598  0.7969522370271112  0.5400744444335598  1.0000
  S   S4        1.0  0.43451111689076277  0.2030477630129966  0.45992555580474814  1.0000
