data_image0
_chemical_formula_structural       H24C34N10
_chemical_formula_sum              "H24 C34 N10"
_cell_length_a       7.706811148945524
_cell_length_b       14.812659112919752
_cell_length_c       6.296561631787669
_cell_angle_alpha    95.14645776715282
_cell_angle_beta     103.3882464017356
_cell_angle_gamma    82.02187310609382

_space_group_name_H-M_alt    "P 1"
_space_group_IT_number       1

loop_
  _space_group_symop_operation_xyz
  'x, y, z'

loop_
  _atom_site_type_symbol
  _atom_site_label
  _atom_site_symmetry_multiplicity
  _atom_site_fract_x
  _atom_site_fract_y
  _atom_site_fract_z
  _atom_site_occupancy
  H   H1        1.0  0.7546812031242249  0.09455796008978783  0.21080115498967447  1.0000
  H   H2        1.0  0.24531879609950802  0.9054420401166244  0.7891988451163895  1.0000
  H   H3        1.0  0.6100124839941133  0.9549267109619677  0.15645685100793932  1.0000
  H   H4        1.0  0.38998751656417485  0.04507328924107176  0.8435431494635405  1.0000
  H   H5        1.0  0.13332797828732984  0.7918204480450379  0.23888076154841942  1.0000
  H   H6        1.0  0.8666720210936323  0.2081795514785313  0.7611192384800969  1.0000
  H   H7        1.0  0.2788007462447396  0.9307181551837116  0.305030787553633  1.0000
  H   H8        1.0  0.7211992543135486  0.06928184501932788  0.6949692129178467  1.0000
  H   H9        1.0  0.20129616235469946  0.5436095391389174  0.09430146118286904  1.0000
  H   H10       1.0  0.7987038382035886  0.456390461064122  0.9056985392886108  1.0000
  H   H11       1.0  0.2804548641789127  0.6272132091405463  0.8270022190281017  1.0000
  H   H12       1.0  0.7195451365366048  0.37278679037965  0.17299778136583038  1.0000
  H   H13       1.0  0.22974731249575361  0.3861905578242653  0.5001254387396822  1.0000
  H   H14       1.0  0.7702526867199899  0.6138094423727175  0.49987455977415757  1.0000
  H   H15       1.0  0.12817815272304503  0.421038304203656  0.2310367844334891  1.0000
  H   H16       1.0  0.871821847835243  0.5789616959993834  0.7689632160379906  1.0000
  H   H17       1.0  0.2203221212514187  0.5017210260811666  0.4378928704945989  1.0000
  H   H18       1.0  0.7796778781295435  0.49827897344240263  0.5621071295339175  1.0000
  H   H19       1.0  0.47920627639757185  0.307273101743443  0.5442055128272727  1.0000
  H   H20       1.0  0.5207937243179457  0.6927268977767534  0.45579448756665936  1.0000
  H   H21       1.0  0.6647304541166326  0.35992276856832717  0.5125780944890435  1.0000
  H   H22       1.0  0.3352695451071002  0.6400772316380852  0.4874219056170206  1.0000
  H   H23       1.0  0.5707515002256739  0.2789526424156299  0.30759819072081573  1.0000
  H   H24       1.0  0.42924850048984353  0.7210473571045667  0.6924018096731164  1.0000
  C   C1        1.0  0.028438028776847313  0.0238261306966907  0.25976217806891055  1.0000
  C   C2        1.0  0.9715619704468855  0.9761738695097215  0.7402378220371534  1.0000
  C   C3        1.0  0.8750230960258181  0.693751040664998  0.16884572378240556  1.0000
  C   C4        1.0  0.12497690319791492  0.3062489595414141  0.8311542763236585  1.0000
  C   C5        1.0  0.3016780143056847  0.10229504949660632  0.3352283524379158  1.0000
  C   C6        1.0  0.6983219864098327  0.8977049500235901  0.6647716479560163  1.0000
  C   C7        1.0  0.017223375678215535  0.19243888600426454  0.29266813282918697  1.0000
  C   C8        1.0  0.9827766248800727  0.8075611141987749  0.7073318676422929  1.0000
  C   C9        1.0  0.8368722006941044  0.028333038325670672  0.21661904012619287  1.0000
  C   C10       1.0  0.16312780002141306  0.9716669611945258  0.7833809602677391  1.0000
  C   C11       1.0  0.7558449533432708  0.9500979830599225  0.1846055323704875  1.0000
  C   C12       1.0  0.244155045880462  0.04990201714648962  0.8153944677355764  1.0000
  C   C13       1.0  0.8598218508979509  0.8622444271393753  0.19134259561422276  1.0000
  C   C14       1.0  0.140178149660337  0.13775557306366423  0.8086574048572569  1.0000
  C   C15       1.0  0.050923616226084836  0.8579087449521259  0.23452604925721748  1.0000
  C   C16       1.0  0.9490763844894327  0.14209125456807054  0.7654739511367147  1.0000
  C   C17       1.0  0.13261919254642643  0.9358932418314114  0.2686700938477243  1.0000
  C   C18       1.0  0.8673808080118618  0.06410675837162781  0.7313299066237555  1.0000
  C   C19       1.0  0.7757291975647587  0.7810925221017417  0.15815505858053808  1.0000
  C   C20       1.0  0.22427080298554017  0.21890747809186822  0.8418449402987176  1.0000
  C   C21       1.0  0.11322340297379176  0.10399397498357978  0.2948018820985432  1.0000
  C   C22       1.0  0.8867765975844963  0.8960060252194596  0.7051981183729366  1.0000
  C   C23       1.0  0.5878451066371103  0.7830692326146843  0.11860030133010854  1.0000
  C   C24       1.0  0.41215489274385186  0.21693076690888496  0.8813996986984078  1.0000
  C   C25       1.0  0.3319239736469502  0.5244886390977633  0.05415088871327834  1.0000
  C   C26       1.0  0.6680760269113379  0.47551136110527614  0.9458491117582014  1.0000
  C   C27       1.0  0.45435316170970436  0.4518864778562419  0.1597531471468793  1.0000
  C   C28       1.0  0.5456468388485838  0.5481135223467974  0.8402468533246006  1.0000
  C   C29       1.0  0.37626533127126816  0.5713149989070034  0.9003673191731018  1.0000
  C   C30       1.0  0.6237346694442492  0.42868500061319303  0.0996326812208303  1.0000
  C   C31       1.0  0.2382657308519806  0.4302398425081088  0.37429181913149673  1.0000
  C   C32       1.0  0.7617342683717523  0.5697601576983035  0.6257081809745673  1.0000
  C   C33       1.0  0.5383564221266842  0.33433420712369627  0.42565053970360844  1.0000
  C   C34       1.0  0.46164357858883315  0.6656657923965001  0.5743494606903237  1.0000
  N   N1        1.0  0.4317678804038695  0.7828433133978391  0.0864852004077159  1.0000
  N   N2        1.0  0.5682321201544187  0.2171566868052004  0.9135148000637638  1.0000
  N   N3        1.0  0.9538814040737035  0.6200198055185453  0.17856796486414916  1.0000
  N   N4        1.0  0.04611859515002964  0.379980194687867  0.8214320352419149  1.0000
  N   N5        1.0  0.45711634939287227  0.1042014934534145  0.3677060405550701  1.0000
  N   N6        1.0  0.5428836511654158  0.895798506749625  0.6322939599164097  1.0000
  N   N7        1.0  0.9445816007210325  0.2672306817844545  0.29539078810368474  1.0000
  N   N8        1.0  0.05541839850270047  0.7327693184219577  0.7046092120023792  1.0000
  N   N9        1.0  0.4117055030125432  0.40700006405448996  0.31479908449585275  1.0000
  N   N10       1.0  0.5882944962032004  0.5929999361424927  0.685200914017987  1.0000
