data_image0
_chemical_formula_structural       H38C62
_chemical_formula_sum              "H38 C62"
_cell_length_a       9.174330831593998
_cell_length_b       9.160708240950308
_cell_length_c       12.67998301479444
_cell_angle_alpha    96.9228218154954
_cell_angle_beta     82.9118628224789
_cell_angle_gamma    106.96606544818847

_space_group_name_H-M_alt    "P 1"
_space_group_IT_number       1

loop_
  _space_group_symop_operation_xyz
  'x, y, z'

loop_
  _atom_site_type_symbol
  _atom_site_label
  _atom_site_symmetry_multiplicity
  _atom_site_fract_x
  _atom_site_fract_y
  _atom_site_fract_z
  _atom_site_occupancy
  H   H1        1.0  0.9180047893386829  0.46873382439865835  0.10321312256155618  1.0000
  H   H2        1.0  0.08199521120787338  0.5312661753247742  0.8967868776595541  1.0000
  H   H3        1.0  0.8301090123057222  0.3195897067857976  0.25960062449099214  1.0000
  H   H4        1.0  0.16989098715840303  0.6804102929300124  0.740399375024681  1.0000
  H   H5        1.0  0.8605062385747362  0.45196029938848004  0.443948397650952  1.0000
  H   H6        1.0  0.13949376087300408  0.5480397003329149  0.5560516026552  1.0000
  H   H7        1.0  0.978459626546545  0.7325211414995422  0.46653661904205984  1.0000
  H   H8        1.0  0.021540374319890015  0.26747885936971777  0.5334633812464029  1.0000
  H   H9        1.0  0.6187081813685843  0.4331244616850669  0.3695871437023324  1.0000
  H   H10       1.0  0.381291819177972  0.5668755380383658  0.6304128565187779  1.0000
  H   H11       1.0  0.4932618213400519  0.6347965825600371  0.3685329029758657  1.0000
  H   H12       1.0  0.5067381792228896  0.36520341715781063  0.6314670964547656  1.0000
  H   H13       1.0  0.2115005702110011  0.5647888320325349  0.34827619318222436  1.0000
  H   H14       1.0  0.7884994303519403  0.435211167685313  0.651723806248407  1.0000
  H   H15       1.0  0.06342884997229888  0.29050751030208505  0.333935537191219  1.0000
  H   H16       1.0  0.9365711505742575  0.7094924894213477  0.6660644630298914  1.0000
  H   H17       1.0  0.6142248701847728  0.26060340715901564  0.48947141732788485  1.0000
  H   H18       1.0  0.3857751303781686  0.7393965925588322  0.5105285821027464  1.0000
  H   H19       1.0  0.7797945345578142  0.09425008608990501  0.5004756553431553  1.0000
  H   H20       1.0  0.2202054648899261  0.90574991363149  0.49952434496299675  1.0000
  H   H21       1.0  0.770611851337057  0.8686313165700537  0.3672183174495183  1.0000
  H   H22       1.0  0.2293881481106832  0.13136868315134137  0.6327816828566337  1.0000
  H   H23       1.0  0.5902132133304157  0.8107554204288417  0.2263399726225002  1.0000
  H   H24       1.0  0.40978678613370967  0.18924457928696822  0.7736600268931728  1.0000
  H   H25       1.0  0.8137588888820766  0.6547626818733941  0.04408898612741752  1.0000
  H   H26       1.0  0.1862411116644796  0.34523731785003847  0.955911014093693  1.0000
  H   H27       1.0  0.8611878169514839  0.7683364803686209  0.8723419520801626  1.0000
  H   H28       1.0  0.13881218359507227  0.23166351935481178  0.12765804814094775  1.0000
  H   H29       1.0  0.11716480880483336  0.9464573922498744  0.8199267023092695  1.0000
  H   H30       1.0  0.8828351909627855  0.05354260861734797  0.18007329806423483  1.0000
  H   H31       1.0  0.3211782733290445  0.01076961566877097  0.9442079149200179  1.0000
  H   H32       1.0  0.6788217261186957  0.989230384052624  0.05579208538613434  1.0000
  H   H33       1.0  0.4033770383375315  0.35664921448697867  0.16055279561029623  1.0000
  H   H34       1.0  0.5966229611102086  0.6433507852344162  0.8394472046958558  1.0000
  H   H35       1.0  0.5698804901710631  0.26140334677776766  0.01608563195314786  1.0000
  H   H36       1.0  0.4301195107117568  0.7385966540859072  0.9839143675448357  1.0000
  H   H37       1.0  0.33315548215368773  0.5959951063950497  0.14497312972587822  1.0000
  H   H38       1.0  0.6668445172940525  0.4040048933263452  0.8550268705802738  1.0000
  C   C1        1.0  0.9993153955290351  0.686751719682221  0.19323488618301612  1.0000
  C   C2        1.0  0.0006846050175212512  0.31324828004121164  0.8067651140380943  1.0000
  C   C3        1.0  0.9309240045556173  0.5274792896431899  0.18300539720431772  1.0000
  C   C4        1.0  0.06907599489212303  0.47252071007820523  0.8169946031018345  1.0000
  C   C5        1.0  0.8821673977528596  0.44283147695699926  0.2712491415376312  1.0000
  C   C6        1.0  0.11783260281008179  0.5571685227608486  0.7287508578930002  1.0000
  C   C7        1.0  0.8993183278448019  0.5163919675744155  0.3739754736731815  1.0000
  C   C8        1.0  0.10068167271813938  0.4836080321434321  0.6260245257574497  1.0000
  C   C9        1.0  0.9660792240646191  0.6734846818588635  0.38690563238912407  1.0000
  C   C10       1.0  0.03392077571938477  0.3265153190027737  0.6130943671939012  1.0000
  C   C11       1.0  0.018057054521221343  0.7605297424849835  0.29809095068566704  1.0000
  C   C12       1.0  0.9819429449265189  0.23947025723641144  0.701909049620485  1.0000
  C   C13       1.0  0.08788454691821293  0.9194163126951429  0.3178727460367407  1.0000
  C   C14       1.0  0.9121154528494059  0.08058368817207923  0.6821272543367636  1.0000
  C   C15       1.0  0.4165278117407055  0.24403507147345532  0.35212246150986426  1.0000
  C   C16       1.0  0.5834721888058507  0.7559649282499774  0.6478775387112461  1.0000
  C   C17       1.0  0.49602981322002826  0.40066485064546753  0.3636229779342757  1.0000
  C   C18       1.0  0.5039701862440971  0.5993351490703427  0.6363770215813973  1.0000
  C   C19       1.0  0.42504728257427227  0.5153642066224803  0.3628004007148889  1.0000
  C   C20       1.0  0.5749527179722841  0.4846357931009525  0.6371995995062215  1.0000
  C   C21       1.0  0.26868761370399763  0.4766753219495662  0.3512443080787199  1.0000
  C   C22       1.0  0.7313123871624372  0.5233246789196936  0.6487556922097427  1.0000
  C   C23       1.0  0.18568268115855158  0.323168194264086  0.3423746643207864  1.0000
  C   C24       1.0  0.8143173194043899  0.6768318054537619  0.6576253351098449  1.0000
  C   C25       1.0  0.25623057204270755  0.2054526906107919  0.34299105954056913  1.0000
  C   C26       1.0  0.7437694285038488  0.7945473091126408  0.6570089406805413  1.0000
  C   C27       1.0  0.16300686112204368  0.05229657534491566  0.3343643065511819  1.0000
  C   C28       1.0  0.8369931386455752  0.9477034255223065  0.6656356938223225  1.0000
  C   C29       1.0  0.5061058160602158  0.13282757574878887  0.35284423941702353  1.0000
  C   C30       1.0  0.49389418370740307  0.8671724251184332  0.6471557609564809  1.0000
  C   C31       1.0  0.6105216277523292  0.1628465246902079  0.4306581654844102  1.0000
  C   C32       1.0  0.3894783720316746  0.8371534761714293  0.569341834098615  1.0000
  C   C33       1.0  0.7043007002308059  0.0698826809783328  0.4368161350204547  1.0000
  C   C34       1.0  0.2956993003157504  0.9301173187451  0.5631838652006558  1.0000
  C   C35       1.0  0.6974786995935432  0.9421306406161722  0.36324272503806615  1.0000
  C   C36       1.0  0.3025213009693982  0.05786935910167576  0.6367572743925651  1.0000
  C   C37       1.0  0.5964366044072255  0.9093576661988274  0.28494309540801904  1.0000
  C   C38       1.0  0.4035633961393308  0.09064233352460523  0.7150569048130914  1.0000
  C   C39       1.0  0.49962704588089574  0.0023242472090854133  0.2781493325711146  1.0000
  C   C40       1.0  0.5003729546656605  0.9976757525143474  0.7218506676499958  1.0000
  C   C41       1.0  0.39969292734786394  0.9603028667193209  0.19613774744234555  1.0000
  C   C42       1.0  0.6003070732150774  0.03969713299852694  0.8038622519882856  1.0000
  C   C43       1.0  0.03888949967809746  0.7664190321329967  0.09392688109559635  1.0000
  C   C44       1.0  0.9611104997860278  0.23358096758281327  0.9060731184200767  1.0000
  C   C45       1.0  0.9259944995186818  0.731902154102325  0.02206775916997266  1.0000
  C   C46       1.0  0.07400550102787459  0.2680978456211077  0.9779322410511377  1.0000
  C   C47       1.0  0.9525157309437396  0.7960250260645324  0.9249273226216514  1.0000
  C   C48       1.0  0.047484268504000525  0.2039749736568625  0.07507267768450052  1.0000
  C   C49       1.0  0.09524243765201096  0.8956673762258951  0.8957872574574857  1.0000
  C   C50       1.0  0.9047575618121143  0.10433262348991491  0.10421274205818737  1.0000
  C   C51       1.0  0.20936634567734627  0.9321063585653363  0.9650254029018521  1.0000
  C   C52       1.0  0.7906336540902726  0.06789364230188587  0.034974597471652165  1.0000
  C   C53       1.0  0.18347690095753302  0.8701705429162832  0.06458470261959398  1.0000
  C   C54       1.0  0.8165230996054084  0.12982945680156463  0.9354152968110372  1.0000
  C   C55       1.0  0.3034682182139097  0.9147121584774035  0.13234559361625212  1.0000
  C   C56       1.0  0.6965317812502154  0.08528784123840641  0.8676544058994209  1.0000
  C   C57       1.0  0.4456265739702488  0.419699050288018  0.09035223766466231  1.0000
  C   C58       1.0  0.5543734254774915  0.580300949433377  0.9096477626414898  1.0000
  C   C59       1.0  0.5390895826596345  0.36581009718932805  0.008960250512205429  1.0000
  C   C60       1.0  0.46091041820680045  0.6341899036799319  0.9910397497762572  1.0000
  C   C61       1.0  0.40642343243079765  0.5539347409501758  0.08154504367831847  1.0000
  C   C62       1.0  0.5935765684356372  0.4460652599190841  0.9184549566101441  1.0000
