data_image0
_chemical_formula_structural       H14C12O8Br2
_chemical_formula_sum              "H14 C12 O8 Br2"
_cell_length_a       4.652553973389536
_cell_length_b       8.622266905212102
_cell_length_c       10.272166342808209
_cell_angle_alpha    70.8161324586673
_cell_angle_beta     81.82659909870296
_cell_angle_gamma    88.34237604829687

_space_group_name_H-M_alt    "P 1"
_space_group_IT_number       1

loop_
  _space_group_symop_operation_xyz
  'x, y, z'

loop_
  _atom_site_type_symbol
  _atom_site_label
  _atom_site_symmetry_multiplicity
  _atom_site_fract_x
  _atom_site_fract_y
  _atom_site_fract_z
  _atom_site_occupancy
  H   H1        1.0  0.5228593018684563  0.7768804632584104  0.4034144498418128  1.0000
  H   H2        1.0  0.47714069865802405  0.2231195363075483  0.5965855502344891  1.0000
  H   H3        1.0  0.7144335297034186  0.5276084633211121  0.19194496883654696  1.0000
  H   H4        1.0  0.2855664707621874  0.47239153740647716  0.8080550312362295  1.0000
  H   H5        1.0  0.9896617591649913  0.37355884731592154  0.2100477932582024  1.0000
  H   H6        1.0  0.010338241361489076  0.6264411522500369  0.7899522068180995  1.0000
  H   H7        1.0  0.8371543818653504  0.0754285921576227  0.4280903639143572  1.0000
  H   H8        1.0  0.16284561866113004  0.924571407408336  0.5719096361619448  1.0000
  H   H9        1.0  0.2896970050454404  0.1640430925073846  0.10919560621556917  1.0000
  H   H10       1.0  0.7103029954201655  0.8359569082202049  0.8908043938572072  1.0000
  H   H11       1.0  0.178695062696708  0.9627372538834625  0.12515807029540948  1.0000
  H   H12       1.0  0.8213049378297722  0.037262745682496094  0.8748419297808925  1.0000
  H   H13       1.0  0.5247696409244822  0.9927881952760066  0.1699880425157424  1.0000
  H   H14       1.0  0.47523035960199816  0.007211804289952037  0.8300119575605595  1.0000
  C   C1        1.0  0.16965818511703448  0.3938649628105125  0.4383031785220789  1.0000
  C   C2        1.0  0.8303418154094458  0.6061350367554462  0.5616968215542231  1.0000
  C   C3        1.0  0.9638742093976282  0.4997032154065409  0.359140867361965  1.0000
  C   C4        1.0  0.0361257911288523  0.5002967841594178  0.6408591327143369  1.0000
  C   C5        1.0  0.9300528399687384  0.4924835980868525  0.22069627348615473  1.0000
  C   C6        1.0  0.06994716055774192  0.5075164014791064  0.7793037265901471  1.0000
  C   C7        1.0  0.808026008231316  0.6040934941472538  0.4171264426859764  1.0000
  C   C8        1.0  0.19197399223428985  0.3959065065803354  0.5828735573868001  1.0000
  C   C9        1.0  0.1600548056116253  0.00913956582473711  0.3168855796047125  1.0000
  C   C10       1.0  0.839945194914855  0.9908604337412213  0.6831144204715893  1.0000
  C   C11       1.0  0.300328676673701  0.03397000558176262  0.17148676894510442  1.0000
  C   C12       1.0  0.6996713237919048  0.9660299951458267  0.828513231127672  1.0000
  O   O1        1.0  0.33380965357435205  0.30055306736786297  0.39389740767875725  1.0000
  O   O2        1.0  0.6661903469521283  0.6994469321980957  0.6061025923975447  1.0000
  O   O3        1.0  0.6252044450106524  0.7088751728881891  0.3478496675409992  1.0000
  O   O4        1.0  0.3747955555158279  0.29112482667776957  0.6521503325353027  1.0000
  O   O5        1.0  0.9125134469681697  0.08445598276096973  0.32657468375946624  1.0000
  O   O6        1.0  0.08748655386330759  0.9155440172038527  0.6734253152757688  1.0000
  O   O7        1.0  0.26753600832096375  0.9212310304516922  0.42158743398225634  1.0000
  O   O8        1.0  0.7324639922055167  0.07876896911426638  0.5784125660940455  1.0000
  Br  Br1       1.0  0.19745848495290796  0.6523112313871785  0.06870102189914673  1.0000
  Br  Br2       1.0  0.8025415155735725  0.34768876817878  0.9312989781771551  1.0000
