data_image0
_chemical_formula_structural       C22N2O2Cl4
_chemical_formula_sum              "C22 N2 O2 Cl4"
_cell_length_a       8.007391670013696
_cell_length_b       9.365868719107324
_cell_length_c       7.082423466612146
_cell_angle_alpha    110.66439030006352
_cell_angle_beta     115.44428176980428
_cell_angle_gamma    73.8613640100344

_space_group_name_H-M_alt    "P 1"
_space_group_IT_number       1

loop_
  _space_group_symop_operation_xyz
  'x, y, z'

loop_
  _atom_site_type_symbol
  _atom_site_label
  _atom_site_symmetry_multiplicity
  _atom_site_fract_x
  _atom_site_fract_y
  _atom_site_fract_z
  _atom_site_occupancy
  C   C1        1.0  0.888733222151236  0.07256738043551596  0.1332917631843183  1.0000
  C   C2        1.0  0.11126677677648149  0.927432620100596  0.8667082365269071  1.0000
  C   C3        1.0  0.096550517439713  0.037688323806586946  0.2349286988906231  1.0000
  C   C4        1.0  0.9034494830947546  0.9623116755960057  0.7650713009406064  1.0000
  C   C5        1.0  0.7996693752277467  0.04673992496768026  0.913437964042742  1.0000
  C   C6        1.0  0.20033062499090787  0.9532600755405997  0.08656203576395578  1.0000
  C   C7        1.0  0.08670208824984106  0.3285467954582198  0.055189011582131735  1.0000
  C   C8        1.0  0.9132979106778762  0.6714532050778922  0.9448109881290935  1.0000
  C   C9        1.0  0.9757861066535223  0.41524799565134957  0.2003210015399432  1.0000
  C   C10       1.0  0.02421389227419525  0.5847520048847623  0.7996789981712822  1.0000
  C   C11       1.0  0.7843758654024755  0.44979726093028355  0.12484404845610687  1.0000
  C   C12       1.0  0.21562413481617917  0.5502027395779961  0.875155951350591  1.0000
  C   C13       1.0  0.6818918184175171  0.5126735102331699  0.2340683414981391  1.0000
  C   C14       1.0  0.31810818082601355  0.4873264891972547  0.765931658237618  1.0000
  C   C15       1.0  0.7350436887768238  0.5601495354500482  0.4553556463855825  1.0000
  C   C16       1.0  0.2649563114418308  0.4398504650582316  0.5446443534211153  1.0000
  C   C17       1.0  0.6489649985747934  0.6245785615706907  0.6100045989091485  1.0000
  C   C18       1.0  0.35103500164386103  0.3754214389375891  0.3899954008975493  1.0000
  C   C19       1.0  0.2834355011895144  0.33634869153115676  0.1888287414518949  1.0000
  C   C20       1.0  0.7165644993449534  0.6636513078714358  0.8111712583793346  1.0000
  C   C21       1.0  0.058890488372389076  0.4645112707212047  0.4368121108088396  1.0000
  C   C22       1.0  0.9411095118462655  0.5354887297870751  0.5631878889978582  1.0000
  N   N1        1.0  0.0038435028858576433  0.258546483851421  0.8608685245444376  1.0000
  N   N2        1.0  0.9961564960418599  0.7414535166846908  0.13913147516678778  1.0000
  O   O1        1.0  0.1782265159818716  0.08332085934835406  0.4317912841408308  1.0000
  O   O2        1.0  0.821773484236783  0.9166791411599259  0.5682087156658671  1.0000
  Cl  Cl1       1.0  0.7744441467319597  0.15138739496201165  0.30688542153275705  1.0000
  Cl  Cl2       1.0  0.2255558534866949  0.8486126055462683  0.6931145782739409  1.0000
  Cl  Cl3       1.0  0.5660292772755527  0.0950235384903713  0.792363745187626  1.0000
  Cl  Cl4       1.0  0.4339707229431019  0.9049764620179085  0.20763625461907176  1.0000
