data_image0
_chemical_formula_structural       H34C40N14S2I3
_chemical_formula_sum              "H34 C40 N14 S2 I3"
_cell_length_a       6.340245840177167
_cell_length_b       11.214452049441716
_cell_length_c       15.338175989499122
_cell_angle_alpha    100.30567948009309
_cell_angle_beta     95.1099652037997
_cell_angle_gamma    84.73640311028595

_space_group_name_H-M_alt    "P 1"
_space_group_IT_number       1

loop_
  _space_group_symop_operation_xyz
  'x, y, z'

loop_
  _atom_site_type_symbol
  _atom_site_label
  _atom_site_symmetry_multiplicity
  _atom_site_fract_x
  _atom_site_fract_y
  _atom_site_fract_z
  _atom_site_occupancy
  H   H1        1.0  0.33557052772628443  0.002078282242203102  0.17216422169483425  1.0000
  H   H2        1.0  0.6644294709210619  0.9979217177841819  0.8278357784526649  1.0000
  H   H3        1.0  0.27326735701571564  0.21868780028467286  0.1469038736128756  1.0000
  H   H4        1.0  0.7267326432082996  0.781312199737495  0.8530961265291503  1.0000
  H   H5        1.0  0.5778976786857951  0.3523423073525788  0.17992762805777493  1.0000
  H   H6        1.0  0.4221023215382202  0.6476576926695891  0.820072372084251  1.0000
  H   H7        1.0  0.9305147839727137  0.2661916837498643  0.23751078401952294  1.0000
  H   H8        1.0  0.06948521625130144  0.7338083162723035  0.762489216122503  1.0000
  H   H9        1.0  0.9667270299328261  0.04863291316300075  0.26171517198201916  1.0000
  H   H10       1.0  0.03327297029118897  0.9513670868591672  0.7382848281600067  1.0000
  H   H11       1.0  0.5318203441259741  0.862275986216668  0.23854475480650206  1.0000
  H   H12       1.0  0.46817965609804113  0.13772401380549984  0.7614552453355238  1.0000
  H   H13       1.0  0.7879745493849055  0.8890238283505429  0.2891078819205855  1.0000
  H   H14       1.0  0.21202545083910973  0.11097617167162493  0.7108921182214404  1.0000
  H   H15       1.0  0.9261438333872406  0.8550604954633996  0.13263158192487176  1.0000
  H   H16       1.0  0.07385616683677455  0.1449395045587683  0.867368418217154  1.0000
  H   H17       1.0  0.8456424961096647  0.7247211640076082  0.16626821671724776  1.0000
  H   H18       1.0  0.15435750398320286  0.2752788358604777  0.8337317827603148  1.0000
  H   H19       1.0  0.14633513906368917  0.6403794961489079  0.020144490062472566  1.0000
  H   H20       1.0  0.8536648611603261  0.35962050387325994  0.9798555100795534  1.0000
  H   H21       1.0  0.19217041044122066  0.7872490177320732  0.004563192262651592  1.0000
  H   H22       1.0  0.8078295897827945  0.21275098229009454  0.9954368078793743  1.0000
  H   H23       1.0  0.37593264813458  0.5617681017426078  0.13098270785472446  1.0000
  H   H24       1.0  0.6240673520894353  0.43823189827956005  0.8690172922873015  1.0000
  H   H25       1.0  0.6482041736156552  0.5906100824064846  0.13810701316730545  1.0000
  H   H26       1.0  0.35179582660836  0.4093899176156833  0.8618929869747205  1.0000
  H   H27       1.0  0.266838058471026  0.7655229566441353  0.604585977494477  1.0000
  H   H28       1.0  0.7331619417529894  0.23447704337803252  0.395414022647549  1.0000
  H   H29       1.0  0.2774814006113666  0.5573934849458815  0.6364250365866991  1.0000
  H   H30       1.0  0.7225185996126487  0.44260651507628646  0.3635749635553268  1.0000
  H   H31       1.0  0.21507305856344122  0.4179857171589961  0.35253523039007917  1.0000
  H   H32       1.0  0.784926941660574  0.5820142828631718  0.6474647697519467  1.0000
  H   H33       1.0  0.20120801983790862  0.6230433469285616  0.3213884397397395  1.0000
  H   H34       1.0  0.7987919788094376  0.3769566530978235  0.6786115604077596  1.0000
  C   C1        1.0  0.4600078808744032  0.0649918472153626  0.1854137552478596  1.0000
  C   C2        1.0  0.539992119349612  0.9350081528068052  0.8145862448941662  1.0000
  C   C3        1.0  0.4288910827211295  0.18447401759127013  0.17209603263405243  1.0000
  C   C4        1.0  0.5711089175028858  0.8155259824308976  0.8279039675079735  1.0000
  C   C5        1.0  0.5981260999447336  0.2583400070699844  0.19078569012951427  1.0000
  C   C6        1.0  0.4018739002792816  0.7416599929521835  0.8092143100125118  1.0000
  C   C7        1.0  0.7951028428829048  0.21086565648590966  0.2230491898341571  1.0000
  C   C8        1.0  0.2048971573411104  0.7891343435362582  0.7769508103078688  1.0000
  C   C9        1.0  0.8187976807190176  0.0912743507667159  0.2357878045508849  1.0000
  C   C10       1.0  0.1812023179283287  0.9087256492596691  0.7642121955966142  1.0000
  C   C11       1.0  0.6855267338103387  0.8924282337299841  0.22824913975499958  1.0000
  C   C12       1.0  0.31447326483700766  0.10757176629640097  0.7717508603924996  1.0000
  C   C13       1.0  0.7882489944012573  0.8139631273698371  0.14972573123344096  1.0000
  C   C14       1.0  0.211751005822758  0.18603687265233057  0.850274268908585  1.0000
  C   C15       1.0  0.44012182446647513  0.6973470424953078  0.06778857704197046  1.0000
  C   C16       1.0  0.5598781756263923  0.3026529573727782  0.9322114224355922  1.0000
  C   C17       1.0  0.23479989418594857  0.7111780863127838  0.46081224671404963  1.0000
  C   C18       1.0  0.7652001059069189  0.28882191355530223  0.539187752763513  1.0000
  C   C19       1.0  0.2553382499102642  0.6887665187636713  0.5502547033935028  1.0000
  C   C20       1.0  0.744661750313751  0.31123348125849654  0.44974529674852315  1.0000
  C   C21       1.0  0.2621021155035818  0.5732018316882457  0.5680098549114199  1.0000
  C   C22       1.0  0.7378978847204335  0.4267981683339221  0.4319901452306061  1.0000
  C   C23       1.0  0.24948947217763912  0.4708796930767099  0.4973798858810005  1.0000
  C   C24       1.0  0.7505105263385595  0.5291203067955933  0.5026201136020354  1.0000
  C   C25       1.0  0.2277325604701346  0.493651292089597  0.4079154665880027  1.0000
  C   C26       1.0  0.7722674396227328  0.5063487077784888  0.5920845328895598  1.0000
  C   C27       1.0  0.22026095032455031  0.6091721672875766  0.3903182765524893  1.0000
  C   C28       1.0  0.7797390498994647  0.3908278327345914  0.6096817235895367  1.0000
  C   C29       1.0  0.2302252376069186  0.8304738310293727  0.4420720283223911  1.0000
  C   C30       1.0  0.7697747626170967  0.16952616899279513  0.5579279718196348  1.0000
  C   C31       1.0  0.21383944229002774  0.852700088030423  0.35391926334664636  1.0000
  C   C32       1.0  0.7861605579339875  0.14729991199174491  0.6460807367953796  1.0000
  C   C33       1.0  0.2439823151218399  0.9336001264013359  0.5094684234522039  1.0000
  C   C34       1.0  0.7560176851021753  0.06639987362083184  0.490531576689822  1.0000
  C   C35       1.0  0.25997060636583735  0.3511632625261219  0.5153532491655525  1.0000
  C   C36       1.0  0.74002939372703  0.648836737341964  0.48464675031201015  1.0000
  C   C37       1.0  0.24730086872648305  0.25103185007244083  0.4450153891089699  1.0000
  C   C38       1.0  0.7526991297897153  0.7489681497998624  0.554984610374066  1.0000
  C   C39       1.0  0.2841031237776264  0.33018349572732963  0.6038853492081186  1.0000
  C   C40       1.0  0.7158968764463889  0.6698165042948382  0.3961146509339073  1.0000
  N   N1        1.0  0.6520781444258748  0.021063073692813433  0.21705606283611695  1.0000
  N   N2        1.0  0.3479218557981404  0.9789369263293545  0.7829439373059089  1.0000
  N   N3        1.0  0.247230499450122  0.7082745397137333  0.027088289819783198  1.0000
  N   N4        1.0  0.7527695007738932  0.2917254603084345  0.9729117103222427  1.0000
  N   N5        1.0  0.49418890721320485  0.6107814137905998  0.11565301281385135  1.0000
  N   N6        1.0  0.5058110930108105  0.38921858623156796  0.8843469873281746  1.0000
  N   N7        1.0  0.2002388985753577  0.870766978678067  0.2806684806837806  1.0000
  N   N8        1.0  0.7997611016486574  0.12923302134410095  0.7193315194582452  1.0000
  N   N9        1.0  0.25394297758634315  0.020522104685949862  0.5643718796322013  1.0000
  N   N10       1.0  0.746057022637672  0.9794778953362181  0.4356281205098246  1.0000
  N   N11       1.0  0.23566254212502216  0.17229608319121417  0.38366113107423294  1.0000
  N   N12       1.0  0.7643374579678454  0.8277039166768717  0.6163388684033297  1.0000
  N   N13       1.0  0.30570899019605785  0.32041449278281453  0.6789299646933237  1.0000
  N   N14       1.0  0.6942910100279575  0.6795855072393533  0.32107003544870233  1.0000
  S   S1        1.0  0.6164070316562638  0.7991889469549995  0.04811794104302733  1.0000
  S   S2        1.0  0.3835929685677513  0.2008110530671683  0.9518820590989986  1.0000
  I   I1        1.0  0.0403848903122919  0.47308356120198153  0.1493458518866978  1.0000
  I   I2        1.0  0.9596151099117233  0.5269164388201864  0.8506541482553281  1.0000
  I   I3        1.0  0.0  0.0  0.0  1.0000
