data_image0
_chemical_formula_structural       H34C40N14S2I3
_chemical_formula_sum              "H34 C40 N14 S2 I3"
_cell_length_a       6.308556242414641
_cell_length_b       11.241681171589477
_cell_length_c       15.400761162822185
_cell_angle_alpha    99.9576141858595
_cell_angle_beta     95.29216997574127
_cell_angle_gamma    84.85754338550615

_space_group_name_H-M_alt    "P 1"
_space_group_IT_number       1

loop_
  _space_group_symop_operation_xyz
  'x, y, z'

loop_
  _atom_site_type_symbol
  _atom_site_label
  _atom_site_symmetry_multiplicity
  _atom_site_fract_x
  _atom_site_fract_y
  _atom_site_fract_z
  _atom_site_occupancy
  H   H1        1.0  0.2708361806569466  0.7634588731385932  0.6043833264816588  1.0000
  H   H2        1.0  0.7291638204932972  0.23654112721411716  0.3956166736717164  1.0000
  H   H3        1.0  0.2799936071184855  0.5556625757661834  0.6362464679831761  1.0000
  H   H4        1.0  0.7200063925859912  0.4443374236964514  0.36375353217436246  1.0000
  H   H5        1.0  0.2147824697119307  0.41884405269416186  0.3536467226211362  1.0000
  H   H6        1.0  0.7852175297194147  0.5811559475108447  0.6463532768748775  1.0000
  H   H7        1.0  0.2001978621314704  0.6237792378337498  0.32240896749205056  1.0000
  H   H8        1.0  0.7998021375730061  0.3762207616288851  0.6775910326654881  1.0000
  H   H9        1.0  0.6704922469140657  0.9928509869088723  0.8277440382082598  1.0000
  H   H10       1.0  0.3295077527904109  0.0071490125537625685  0.17225596194927878  1.0000
  H   H11       1.0  0.7296151540847368  0.7780301087888291  0.855981082034789  1.0000
  H   H12       1.0  0.270384847065507  0.2219698915638813  0.14401891811858614  1.0000
  H   H13       1.0  0.4222122987165601  0.6453875635906057  0.8234479896799158  1.0000
  H   H14       1.0  0.577787700848966  0.3546124367651089  0.17655201047736221  1.0000
  H   H15       1.0  0.07027219689869628  0.7305868227944337  0.763088487536743  1.0000
  H   H16       1.0  0.9297278025326492  0.26941317741057286  0.23691151195927088  1.0000
  H   H17       1.0  0.03655577928109783  0.9466454404273507  0.7365433886319526  1.0000
  H   H18       1.0  0.9634442204233788  0.05335455903528429  0.263456611525586  1.0000
  H   H19       1.0  0.47660890327561456  0.13249931662784084  0.761967925075664  1.0000
  H   H20       1.0  0.5233910964288621  0.8675006828347939  0.23803207508187457  1.0000
  H   H21       1.0  0.22285706708741088  0.10542551761792762  0.707401130298155  1.0000
  H   H22       1.0  0.7771429326170657  0.894574481844707  0.2925988698593836  1.0000
  H   H23       1.0  0.07071427747606175  0.14029187567340654  0.8612876297687809  1.0000
  H   H24       1.0  0.9292857219552836  0.8597081245315998  0.1387123697272327  1.0000
  H   H25       1.0  0.8452914566405032  0.7307510920473769  0.17263726680489244  1.0000
  H   H26       1.0  0.15470854450974064  0.2692489083053336  0.8273627333484828  1.0000
  H   H27       1.0  0.8507229469819255  0.35832755280006906  0.9771570134490545  1.0000
  H   H28       1.0  0.14927705258360047  0.6416724475556456  0.02284298670822347  1.0000
  H   H29       1.0  0.8069071512246316  0.21213664212994587  0.9947334978449409  1.0000
  H   H30       1.0  0.19309284834089444  0.7878633582257687  0.005266502312337132  1.0000
  H   H31       1.0  0.6197361804124532  0.43546821950221837  0.8667178575085691  1.0000
  H   H32       1.0  0.38026382060361  0.5645317806997839  0.13328214198354185  1.0000
  H   H33       1.0  0.3460803281880557  0.4060786589064211  0.8603708394607392  1.0000
  H   H34       1.0  0.6539196731011385  0.5939213405532094  0.13962916069289655  1.0000
  C   C1        1.0  0.23565873771819335  0.7104555472031439  0.4612870778223695  1.0000
  C   C2        1.0  0.7643412634320504  0.2895444531495666  0.5387129223310057  1.0000
  C   C3        1.0  0.2577487579848356  0.6873420580310874  0.550318948061399  1.0000
  C   C4        1.0  0.7422512417196411  0.3126579414315475  0.44968105209613957  1.0000
  C   C5        1.0  0.2641338561513973  0.5719352293228782  0.5680732718590547  1.0000
  C   C6        1.0  0.7358661435530792  0.42806477013975663  0.4319267282984839  1.0000
  C   C7        1.0  0.2499130258236518  0.47054076299291886  0.4977104881080003  1.0000
  C   C8        1.0  0.7500869737418743  0.5294592373627957  0.5022895120492777  1.0000
  C   C9        1.0  0.227768021522205  0.49394431752792906  0.4086547026763149  1.0000
  C   C10       1.0  0.7722319781822716  0.5060556819347058  0.5913452974812238  1.0000
  C   C11       1.0  0.21996235188042954  0.609330021708489  0.3910871497353785  1.0000
  C   C12       1.0  0.7800376478240469  0.3906699777541458  0.6089128504221603  1.0000
  C   C13       1.0  0.23060294232612238  0.8294409379639875  0.442420804810004  1.0000
  C   C14       1.0  0.7693970586899408  0.17055906223801479  0.5575791946821069  1.0000
  C   C15       1.0  0.2121483361513755  0.8525345136321753  0.354754862024762  1.0000
  C   C16       1.0  0.7878516635531011  0.14746548583045957  0.6452451381327767  1.0000
  C   C17       1.0  0.2454444460261217  0.9319556641018015  0.5091900264664303  1.0000
  C   C18       1.0  0.7545555549899414  0.06804433610020078  0.49080997302568075  1.0000
  C   C19       1.0  0.2592349536061637  0.35102299753620325  0.5154628456731145  1.0000
  C   C20       1.0  0.7407650459593624  0.6489770028195113  0.48453715448416346  1.0000
  C   C21       1.0  0.24561370727403634  0.2522513737521137  0.44511310056552894  1.0000
  C   C22       1.0  0.754386292157309  0.7477486264528928  0.5548868989304847  1.0000
  C   C23       1.0  0.28271173393422083  0.3286691472690708  0.6033717901352007  1.0000
  C   C24       1.0  0.7172882656313053  0.6713308530866438  0.39662821002207727  1.0000
  C   C25       1.0  0.5444081810764293  0.9306841308942522  0.8149198897208451  1.0000
  C   C26       1.0  0.4555918186280472  0.06931586856838268  0.18508011043669365  1.0000
  C   C27       1.0  0.5738450461896754  0.8120155149431723  0.8298951855923111  1.0000
  C   C28       1.0  0.42615495337585063  0.18798448541254228  0.1701048145649668  1.0000
  C   C29       1.0  0.4032293726082746  0.7386396922356157  0.8114444104885182  1.0000
  C   C30       1.0  0.5967706284077885  0.2613603079663867  0.18855558900359268  1.0000
  C   C31       1.0  0.20659006951555756  0.7857055831954478  0.7777550724768156  1.0000
  C   C32       1.0  0.7934099300499685  0.21429441716026684  0.22224492768046242  1.0000
  C   C33       1.0  0.18428005312450552  0.9044595998766382  0.7635845144862486  1.0000
  C   C34       1.0  0.81571994630684  0.09554040032836836  0.23641548500976511  1.0000
  C   C35       1.0  0.3201386711963685  0.1024661344365448  0.7697084473012117  1.0000
  C   C36       1.0  0.6798613283691575  0.8975338659191697  0.23029155285606628  1.0000
  C   C37       1.0  0.21132177011569112  0.18111442081783796  0.8457990782627981  1.0000
  C   C38       1.0  0.7886782310345527  0.8188855795348725  0.15420092189057705  1.0000
  C   C39       1.0  0.5563791867793854  0.3001016173129856  0.9302016330163134  1.0000
  C   C40       1.0  0.4436208145098089  0.6998983821466449  0.06979836713732226  1.0000
  N   N1        1.0  0.1965431101727032  0.8728266328264425  0.2822949607976154  1.0000
  N   N2        1.0  0.8034568892586422  0.12717336737856405  0.7177050386983983  1.0000
  N   N3        1.0  0.2562283198365242  0.018587714442361396  0.563425255534585  1.0000
  N   N4        1.0  0.7437716795948212  0.9814122857626452  0.43657474396142876  1.0000
  N   N5        1.0  0.23372082353708493  0.17510318987348142  0.38349674305263043  1.0000
  N   N6        1.0  0.7662791761673916  0.8248968095891535  0.6165032571049082  1.0000
  N   N7        1.0  0.30429611997388406  0.3168933346988499  0.6777816241751385  1.0000
  N   N8        1.0  0.695703879591642  0.6831066656568646  0.3222183759821394  1.0000
  N   N9        1.0  0.35235646634148393  0.9744463625519443  0.782144580077207  1.0000
  N   N10       1.0  0.6476435332240421  0.02555363780377016  0.21785542008007092  1.0000
  N   N11       1.0  0.7501110891919107  0.2903458332234109  0.9714631076167984  1.0000
  N   N12       1.0  0.2498889103736154  0.7096541671323038  0.028536892540479503  1.0000
  N   N13       1.0  0.5017409528018695  0.38559627862816076  0.8815832643262701  1.0000
  N   N14       1.0  0.49825904690260703  0.614403720834474  0.11841673583126848  1.0000
  S   S1        1.0  0.3779104077535761  0.19820189251943282  0.9489568017950484  1.0000
  S   S2        1.0  0.6220895933966677  0.8017981078332775  0.051043198358326755  1.0000
  I   I1        1.0  0.0  0.0  0.0  1.0000
  I   I2        1.0  0.042315890199755575  0.47567872803350547  0.1489762701982398  1.0000
  I   I3        1.0  0.9576841092315899  0.5243212721715009  0.8510237292977739  1.0000
