data_image0
_chemical_formula_structural       H92C32N12O32S4
_chemical_formula_sum              "H92 C32 N12 O32 S4"
_cell_length_a       5.225700930501716
_cell_length_b       24.343984277861892
_cell_length_c       11.239836811967175
_cell_angle_alpha    90.0
_cell_angle_beta     93.5032144084151
_cell_angle_gamma    90.0

_space_group_name_H-M_alt    "P 1"
_space_group_IT_number       1

loop_
  _space_group_symop_operation_xyz
  'x, y, z'

loop_
  _atom_site_type_symbol
  _atom_site_label
  _atom_site_symmetry_multiplicity
  _atom_site_fract_x
  _atom_site_fract_y
  _atom_site_fract_z
  _atom_site_occupancy
  H   H1        1.0  0.6429629390926438  0.38312809495534106  0.03215665902473464  1.0000
  H   H2        1.0  0.8570370624646391  0.8831280949992555  0.46784334068465394  1.0000
  H   H3        1.0  0.3570370622606568  0.616871905132488  0.9678433410791121  1.0000
  H   H4        1.0  0.1429629388886616  0.11687190508857348  0.5321566594191929  1.0000
  H   H5        1.0  0.4373145811551363  0.38508888820328147  0.13987554301851038  1.0000
  H   H6        1.0  0.0626854185629135  0.8850888878364168  0.36012445700641865  1.0000
  H   H7        1.0  0.5626854182809632  0.6149111118845475  0.8601244570313477  1.0000
  H   H8        1.0  0.937314580873186  0.11491111184063303  0.6398755430434394  1.0000
  H   H9        1.0  0.9097441675811676  0.36940293533535845  0.42019948977175664  1.0000
  H   H10       1.0  0.5902558320589141  0.8694029353792729  0.07980050988364305  1.0000
  H   H11       1.0  0.09025583377110465  0.6305970647524705  0.5798005094423685  1.0000
  H   H12       1.0  0.4097441673771854  0.13059706470855603  0.9201994901662149  1.0000
  H   H13       1.0  0.790851196372467  0.23929478854032674  0.28266250759949274  1.0000
  H   H14       1.0  0.7091488032686429  0.7392947885842414  0.2173374929456287  1.0000
  H   H15       1.0  0.20914880306363234  0.7607052111367232  0.7173374924503653  1.0000
  H   H16       1.0  0.2908511961674565  0.2607052110928087  0.7826625071042292  1.0000
  H   H17       1.0  0.712579535130627  0.28324931290193955  0.1583590002942414  1.0000
  H   H18       1.0  0.787420464510483  0.7832493129458541  0.34164100025088  1.0000
  H   H19       1.0  0.2874204643054725  0.7167506871858894  0.8416409997556166  1.0000
  H   H20       1.0  0.21257953492561638  0.21675068714197496  0.6583589997989779  1.0000
  H   H21       1.0  0.16295829078419474  0.26565142074467324  0.09928407892170876  1.0000
  H   H22       1.0  0.337041708933855  0.7656514207885877  0.4007159211032202  1.0000
  H   H23       1.0  0.8370417086519047  0.7343485793431558  0.9007159211281494  1.0000
  H   H24       1.0  0.6629582905012161  0.23434857929924124  0.599284078056916  1.0000
  H   H25       1.0  0.04803875457291034  0.18662286617279314  0.9950446536350652  1.0000
  H   H26       1.0  0.451961246576408  0.6866228662167077  0.50495534686324  1.0000
  H   H27       1.0  0.9519612467803903  0.8133771335042568  0.0049553464687816535  1.0000
  H   H28       1.0  0.5480387547768926  0.31337713346034224  0.49504465324060687  1.0000
  H   H29       1.0  0.7734420739040311  0.22979286735274387  0.00534202675223112  1.0000
  H   H30       1.0  0.7265579257360506  0.7297928673966584  0.49465797290316854  1.0000
  H   H31       1.0  0.22655792553104004  0.7702071327350851  0.9946579724079052  1.0000
  H   H32       1.0  0.27344207370004886  0.27020713269117064  0.5053420271466894  1.0000
  H   H33       1.0  0.8106424726655812  0.17001010856565915  0.09803343675369874  1.0000
  H   H34       1.0  0.689357526975529  0.6700101086095737  0.40196656379142265  1.0000
  H   H35       1.0  0.18935752677051831  0.8299898915221698  0.9019665632961592  1.0000
  H   H36       1.0  0.3106424743777717  0.3299898914782553  0.5980334363124241  1.0000
  H   H37       1.0  0.37164651770445445  0.18434920671885013  0.16434218092069672  1.0000
  H   H38       1.0  0.12835348201359528  0.6843492067627647  0.3356578191042322  1.0000
  H   H39       1.0  0.6283534817306167  0.8156507933689788  0.8356578182394396  1.0000
  H   H40       1.0  0.8716465174225041  0.31565079332506435  0.6643421809456258  1.0000
  H   H41       1.0  0.13097870820566868  0.17290754389074453  0.26962921545964635  1.0000
  H   H42       1.0  0.36902129151238106  0.672907543934659  0.2303707845652826  1.0000
  H   H43       1.0  0.8690212912304307  0.8270924561970845  0.7303707845902115  1.0000
  H   H44       1.0  0.6309787079237185  0.32709245615316995  0.7696292154845754  1.0000
  H   H45       1.0  0.3420383949370344  0.2310395733008577  0.28599852488970223  1.0000
  H   H46       1.0  0.15796160669821646  0.7310395733447723  0.21400147518921556  1.0000
  H   H47       1.0  0.6579616064162662  0.7689604267869713  0.7140014752141446  1.0000
  H   H48       1.0  0.8420383946550841  0.2689604267430568  0.7859985249146312  1.0000
  H   H49       1.0  0.7862195160378415  0.5158463744745293  0.37103922936201567  1.0000
  H   H50       1.0  0.7137804836032685  0.015846374430614825  0.12896077118310573  1.0000
  H   H51       1.0  0.2137804833982579  0.4841536256132997  0.6289607706878423  1.0000
  H   H52       1.0  0.286219515832831  0.9841536256572142  0.8710392288667522  1.0000
  H   H53       1.0  0.83464225107403  0.573973845879727  0.27881722367644335  1.0000
  H   H54       1.0  0.6653577485660518  0.07397384583581255  0.22118277597895636  1.0000
  H   H55       1.0  0.1653577502792707  0.42602615420810197  0.7211827764274035  1.0000
  H   H56       1.0  0.3346422508700477  0.9260261542520165  0.7788172240709017  1.0000
  H   H57       1.0  0.2062061404668489  0.47917536081421297  0.3012962614641426  1.0000
  H   H58       1.0  0.29379385925120083  0.9791753608581275  0.19870373856078635  1.0000
  H   H59       1.0  0.7937938589692506  0.520824639273616  0.6987037385857153  1.0000
  H   H60       1.0  0.7062061401848987  0.02082463922970153  0.8012962614890716  1.0000
  H   H61       1.0  0.019722398277537367  0.44566309672924564  0.12073649452050741  1.0000
  H   H62       1.0  0.4802776014405124  0.9456630967731602  0.37926350550442156  1.0000
  H   H63       1.0  0.980277601158562  0.5543369029478042  0.8792635055293506  1.0000
  H   H64       1.0  0.5197223979955871  0.054336903314668845  0.6207364945454363  1.0000
  H   H65       1.0  0.7903736677919432  0.5005952575759027  0.11319641645943922  1.0000
  H   H66       1.0  0.7096263318491668  0.0005952575319882159  0.38680358408568216  1.0000
  H   H67       1.0  0.20962633164415626  0.4994047425119263  0.8868035835904188  1.0000
  H   H68       1.0  0.2903736675869326  0.9994047421450616  0.6131964159641758  1.0000
  H   H69       1.0  0.7792170868993696  0.4498864473043402  0.22816624545665867  1.0000
  H   H70       1.0  0.7207829146579133  0.9498864473482547  0.2718337542527299  1.0000
  H   H71       1.0  0.22078291445393108  0.5501135527834888  0.7718337546471881  1.0000
  H   H72       1.0  0.2792170866953873  0.05011355273957432  0.7281662458511169  1.0000
  H   H73       1.0  0.3540242587382643  0.5148588011288686  0.1221294025395387  1.0000
  H   H74       1.0  0.1459757409797854  0.014858801084954106  0.3778705974853903  1.0000
  H   H75       1.0  0.6459757426150363  0.4851411989589604  0.8778705975643082  1.0000
  H   H76       1.0  0.8540242584563139  0.9851411985920958  0.6221294025644677  1.0000
  H   H77       1.0  0.3834785493236258  0.5643780879572068  0.2396807153493379  1.0000
  H   H78       1.0  0.11652145231162507  0.06437808791329237  0.2603192847295799  1.0000
  H   H79       1.0  0.6165214520296748  0.4356219121306221  0.7603192847545088  1.0000
  H   H80       1.0  0.8834785490416756  0.9356219121745366  0.7396807153742669  1.0000
  H   H81       1.0  0.1295321841314619  0.5706494270386585  0.12578967329785232  1.0000
  H   H82       1.0  0.37046781558658787  0.07064942699474402  0.3742103267270767  1.0000
  H   H83       1.0  0.8704678153046375  0.42935057304917046  0.8742103267520056  1.0000
  H   H84       1.0  0.6295321857667127  0.929350573093085  0.6257896733767702  1.0000
  H   H85       1.0  0.5015994528250349  0.4363897749334666  0.4144712391189434  1.0000
  H   H86       1.0  0.9984005468150469  0.9363897749773811  0.08552876053645635  1.0000
  H   H87       1.0  0.4984005466110646  0.5636102251543624  0.5855287609309147  1.0000
  H   H88       1.0  0.0015994526210525938  0.06361022511044792  0.9144712395134016  1.0000
  H   H89       1.0  0.3398191760711398  0.3938813084397112  0.33188159720451543  1.0000
  H   H90       1.0  0.16018082556411106  0.8938813084836258  0.1681184028744024  1.0000
  H   H91       1.0  0.6601808252821608  0.6061186912373387  0.6681184028993314  1.0000
  H   H92       1.0  0.8398191757891896  0.10611869160420331  0.8318815972294444  1.0000
  C   C1        1.0  0.9884038399402656  0.31617702846610696  0.2871493590618246  1.0000
  C   C2        1.0  0.5115961596998161  0.8161770285100215  0.2128506405935751  1.0000
  C   C3        1.0  0.01159615949583384  0.683822971621722  0.7128506409880334  1.0000
  C   C4        1.0  0.488403839735255  0.18382297157780755  0.7871493585665612  1.0000
  C   C5        1.0  0.86942258226098  0.2679947910553367  0.2190028548060984  1.0000
  C   C6        1.0  0.63057741738013  0.7679947910992512  0.28099714573902296  1.0000
  C   C7        1.0  0.1305774171751194  0.7320052090324922  0.7809971452437596  1.0000
  C   C8        1.0  0.3694225820559695  0.23200520898857777  0.719002854310835  1.0000
  C   C9        1.0  0.9110080282350883  0.20330739921241409  0.055229068383027415  1.0000
  C   C10       1.0  0.5889919714049933  0.7033073992563286  0.44477093127237227  1.0000
  C   C11       1.0  0.0889919712010111  0.7966926004646359  0.9447709316668306  1.0000
  C   C12       1.0  0.4110080280300777  0.2966926004207213  0.5552290678877639  1.0000
  C   C13       1.0  0.23819906086451154  0.20384709188761632  0.2226435655843594  1.0000
  C   C14       1.0  0.26180094077073934  0.7038470915207518  0.2773564344945584  1.0000
  C   C15       1.0  0.7618009404887891  0.7961529082002127  0.7773564345194872  1.0000
  C   C16       1.0  0.7381990605825612  0.2961529081562982  0.7226435656092883  1.0000
  C   C17       1.0  0.09673506082566238  0.5671068187697883  0.43413512817755856  1.0000
  C   C18       1.0  0.40326493889238735  0.0671068187258738  0.06586487184737044  1.0000
  C   C19       1.0  0.9032649386104371  0.4328931813180407  0.5658648718722994  1.0000
  C   C20       1.0  0.5967350605437122  0.9328931813619552  0.9341351282024877  1.0000
  C   C21       1.0  0.9322094553410357  0.5416668388991476  0.3324160389290019  1.0000
  C   C22       1.0  0.5677905442990461  0.04166683885523312  0.16758396072639778  1.0000
  C   C23       1.0  0.06779054409506378  0.45833316118868134  0.667583961120856  1.0000
  C   C24       1.0  0.43220945513705344  0.9583331608218167  0.8324160393234603  1.0000
  C   C25       1.0  0.9054528841579224  0.47337639223172095  0.17277344456265586  1.0000
  C   C26       1.0  0.5945471154821593  0.9733763922756355  0.32722655509274384  1.0000
  C   C27       1.0  0.09454711719434988  0.5266236078561081  0.8272265546514692  1.0000
  C   C28       1.0  0.40545288395394014  0.026623607812193514  0.6727734449571141  1.0000
  C   C29       1.0  0.24901209594264603  0.541931749520449  0.17957883911936934  1.0000
  C   C30       1.0  0.2509879037754037  0.04193174947653452  0.32042116090555967  1.0000
  C   C31       1.0  0.7509879054106545  0.45806825056737993  0.8204211609844776  1.0000
  C   C32       1.0  0.7490120956606957  0.9580682506112945  0.6795788391442984  1.0000
  N   N1        1.0  0.45693229721020245  0.3920930415930394  0.050848477602626924  1.0000
  N   N2        1.0  0.04306770442504836  0.8920930416369539  0.44915152247629087  1.0000
  N   N3        1.0  0.5430677041430981  0.6079069584947896  0.94915152250122  1.0000
  N   N4        1.0  0.9569322969282523  0.10790695845087511  0.550848477627556  1.0000
  N   N5        1.0  0.052909252514744536  0.23758954836574483  0.14729555032446254  1.0000
  N   N6        1.0  0.44709074720330516  0.7375895484096594  0.3527044497004664  1.0000
  N   N7        1.0  0.9470907469213549  0.762410451311305  0.8527044497253954  1.0000
  N   N8        1.0  0.5529092522327943  0.26241045126739054  0.6472955503493916  1.0000
  N   N9        1.0  0.08110216342941252  0.5074038189070373  0.2515488036319493  1.0000
  N   N10       1.0  0.4188978362886372  0.007403818863122851  0.24845119639297963  1.0000
  N   N11       1.0  0.9188978360066871  0.4925961811807916  0.7484511964179088  1.0000
  N   N12       1.0  0.5811021631474623  0.9925961812247062  0.7515488036568784  1.0000
  O   O1        1.0  0.34452095567378815  0.2919667951175762  0.9961019536646374  1.0000
  O   O2        1.0  0.15547904355832903  0.7919667951614908  0.5038980467796791  1.0000
  O   O3        1.0  0.6554790437623114  0.7080332049702528  0.00389804638522074  1.0000
  O   O4        1.0  0.8445209558777704  0.20803320492633826  0.496101953270179  1.0000
  O   O5        1.0  0.005929969313131073  0.36004157166543355  0.014689898833492468  1.0000
  O   O6        1.0  0.49407003232211977  0.860041571709348  0.4853101012454254  1.0000
  O   O7        1.0  0.9940700320401695  0.6399584280116164  0.9853101012703543  1.0000
  O   O8        1.0  0.5059299690311808  0.13995842796770186  0.5146898988584215  1.0000
  O   O9        1.0  0.29011659010939084  0.3644966747727185  0.8473336310657598  1.0000
  O   O10       1.0  0.2098834091227264  0.864496674405854  0.6526663693785566  1.0000
  O   O11       1.0  0.7098834093267087  0.6355033253151104  0.1526663689840983  1.0000
  O   O12       1.0  0.7901165903133731  0.13550332527119593  0.34733363067130135  1.0000
  O   O13       1.0  0.8215512422894694  0.34077216306551966  0.34999328262228563  1.0000
  O   O14       1.0  0.6784487573516405  0.8407721631094343  0.15000671792283576  1.0000
  O   O15       1.0  0.17844875906383106  0.6592278370223094  0.6500067174815611  1.0000
  O   O16       1.0  0.32155124208445895  0.15922783697839482  0.8499932821270222  1.0000
  O   O17       1.0  0.21784159178019943  0.3288722486269682  0.28150344811881417  1.0000
  O   O18       1.0  0.2821584079378503  0.8288722486708827  0.2184965519061148  1.0000
  O   O19       1.0  0.7821584076558998  0.6711277514608609  0.7184965519310438  1.0000
  O   O20       1.0  0.7178415914982491  0.17112775141694633  0.7815034481437432  1.0000
  O   O21       1.0  0.9786425526282432  0.6050427827212533  0.48802246122926957  1.0000
  O   O22       1.0  0.5213574470118386  0.10504278267733884  0.011977538426130176  1.0000
  O   O23       1.0  0.021357446807856277  0.3949572173665757  0.5119775388205885  1.0000
  O   O24       1.0  0.4786425524242609  0.8949572174104902  0.9880224616237279  1.0000
  O   O25       1.0  0.31948363701096605  0.5496413999974532  0.4584452056387562  1.0000
  O   O26       1.0  0.1805163627070837  0.049641399953538695  0.04155479438617282  1.0000
  O   O27       1.0  0.6805163643413062  0.4503586000903758  0.541554793575369  1.0000
  O   O28       1.0  0.8194836367290158  0.9503586001342904  0.9584452056636852  1.0000
  O   O29       1.0  0.4103235862403045  0.4316844141062265  0.33429111872143746  1.0000
  O   O30       1.0  0.08967641539494638  0.931684414150141  0.1657088813574803  1.0000
  O   O31       1.0  0.5896764151129961  0.5683155859816026  0.6657088813824094  1.0000
  O   O32       1.0  0.9103235859583543  0.06831558593768802  0.8342911187463664  1.0000
  S   S1        1.0  0.2610446281251483  0.34957907230243407  0.9718216992613683  1.0000
  S   S2        1.0  0.2389553730241701  0.8495790723463486  0.5281783012369367  1.0000
  S   S3        1.0  0.7389553732281524  0.650420927785395  0.02817830084247846  1.0000
  S   S4        1.0  0.7610446264119294  0.15042092774148047  0.47182169881292124  1.0000
