data_image0
_chemical_formula_structural       H158C104N16O14Cl6
_chemical_formula_sum              "H158 C104 N16 O14 Cl6"
_cell_length_a       12.221212827922605
_cell_length_b       13.696028349753055
_cell_length_c       16.951800359867377
_cell_angle_alpha    82.07779218303035
_cell_angle_beta     83.57759463288076
_cell_angle_gamma    66.32859870650519

_space_group_name_H-M_alt    "P 1"
_space_group_IT_number       1

loop_
  _space_group_symop_operation_xyz
  'x, y, z'

loop_
  _atom_site_type_symbol
  _atom_site_label
  _atom_site_symmetry_multiplicity
  _atom_site_fract_x
  _atom_site_fract_y
  _atom_site_fract_z
  _atom_site_occupancy
  H   H1        1.0  0.35502253547145146  0.6558002432646817  0.9878273923489288  1.0000
  H   H2        1.0  0.6449774646982733  0.34419975623170346  0.012172608001331542  1.0000
  H   H3        1.0  0.4964405347414832  0.7203222891442288  0.061043111098918926  1.0000
  H   H4        1.0  0.5035594654282415  0.2796777103521563  0.9389568892513415  1.0000
  H   H5        1.0  0.4518752262958517  0.8597075634033001  0.2684404660444679  1.0000
  H   H6        1.0  0.5481247735753723  0.14029243696886126  0.731559533706341  1.0000
  H   H7        1.0  0.2748841942220971  0.9206497212683793  0.3836332961284493  1.0000
  H   H8        1.0  0.7251158055878447  0.07935027902558221  0.6163667042190984  1.0000
  H   H9        1.0  0.9278060258770305  0.8532357645406603  0.4601070399174537  1.0000
  H   H10       1.0  0.07219397429269413  0.14676423495572463  0.5398929604328067  1.0000
  H   H11       1.0  0.8236960091149792  0.7380395780026626  0.40472319513003363  1.0000
  H   H12       1.0  0.17630399105474545  0.26196042149372234  0.5952768052202269  1.0000
  H   H13       1.0  0.8662900675893646  0.5908112446368188  0.19748231733515714  1.0000
  H   H14       1.0  0.13370993264164205  0.40918875493776635  0.8025176824183646  1.0000
  H   H15       1.0  0.010433706288399488  0.578735338076899  0.062267269376183106  1.0000
  H   H16       1.0  0.9895662935828243  0.4212646622952624  0.9377327303746259  1.0000
  H   H17       1.0  0.6771173597302749  0.6329558113680525  0.15592274998546257  1.0000
  H   H18       1.0  0.32288264043945  0.3670441881283325  0.8440772503647979  1.0000
  H   H19       1.0  0.6644889001017142  0.6855467476297286  0.2488486347198498  1.0000
  H   H20       1.0  0.3355110997082276  0.3144532526642329  0.7511513656276979  1.0000
  H   H21       1.0  0.5677133250245945  0.761728665695106  0.1724513982741087  1.0000
  H   H22       1.0  0.4322866747853475  0.23827133459885536  0.827548602073439  1.0000
  H   H23       1.0  0.211123224281933  0.866452661941638  0.5186183893791373  1.0000
  H   H24       1.0  0.7888767755280088  0.13354733835232344  0.4813816109684104  1.0000
  H   H25       1.0  0.080875258905289  0.8398508985390593  0.5482353046204956  1.0000
  H   H26       1.0  0.9191247413257176  0.16014910103552576  0.45176469513302614  1.0000
  H   H27       1.0  0.08938840757704263  0.9161118329259705  0.4557036161484087  1.0000
  H   H28       1.0  0.910611592653964  0.08388816664861448  0.5442963836051129  1.0000
  H   H29       1.0  0.3098688387366422  0.574714799796277  0.49662051768239984  1.0000
  H   H30       1.0  0.6901311611345817  0.42528520057588437  0.5033794820684091  1.0000
  H   H31       1.0  0.2040565141856808  0.6447833522380241  0.5706085140841005  1.0000
  H   H32       1.0  0.7959434856855431  0.3552166481341372  0.4293914856667085  1.0000
  H   H33       1.0  0.33557503003136185  0.671546443870511  0.543254927870157  1.0000
  H   H34       1.0  0.6644249698398622  0.32845355650165026  0.45674507188065205  1.0000
  H   H35       1.0  0.8095413218824317  0.6104941813695999  0.33847937946508183  1.0000
  H   H36       1.0  0.19045867828729302  0.3895058181267851  0.6615206208851786  1.0000
  H   H37       1.0  0.8528407638681094  0.5227646405380034  0.4273411109685455  1.0000
  H   H38       1.0  0.1471592359418325  0.477235359755958  0.5726588893790022  1.0000
  H   H39       1.0  0.8654492223775176  0.4702073664490968  0.33465800020173525  1.0000
  H   H40       1.0  0.1345507777922071  0.5297926330472882  0.6653420001485251  1.0000
  H   H41       1.0  0.1961773092758342  0.46514404568314743  0.9967718224763217  1.0000
  H   H42       1.0  0.8038226909551726  0.5348559538914375  0.003228177277200023  1.0000
  H   H43       1.0  0.3304140269588091  0.48639526965894175  0.9694678096690167  1.0000
  H   H44       1.0  0.6695859729124147  0.5136047307132197  0.030532190081792282  1.0000
  H   H45       1.0  0.1930660581781591  0.597524254844946  0.9852661936467885  1.0000
  H   H46       1.0  0.8069339419915657  0.402475744651439  0.01473380670347203  1.0000
  H   H47       1.0  0.3719759005681071  0.36561247339367803  0.17997760398149462  1.0000
  H   H48       1.0  0.6280240996628994  0.6343875261809071  0.8200223957720271  1.0000
  H   H49       1.0  0.43414507436376354  0.3570116615758703  0.08014941694472925  1.0000
  H   H50       1.0  0.5658549258672431  0.6429883379987148  0.9198505828087924  1.0000
  H   H51       1.0  0.3025468705593636  0.3303590129439123  0.1084035997424024  1.0000
  H   H52       1.0  0.6974531293118602  0.6696409874282491  0.8915964000084066  1.0000
  H   H53       1.0  0.6315558410483273  0.5266885493809389  0.331090216445734  1.0000
  H   H54       1.0  0.3684441591213975  0.47331145011544595  0.6689097839045265  1.0000
  H   H55       1.0  0.528286962888741  0.48159972497881565  0.3015562670066927  1.0000
  H   H56       1.0  0.47171303728098374  0.5184002745175694  0.6984437333435677  1.0000
  H   H57       1.0  0.6636723468841309  0.4517971873184998  0.16491062019313887  1.0000
  H   H58       1.0  0.33632765328559394  0.5482028121778852  0.8350893801571214  1.0000
  H   H59       1.0  0.7731155469138628  0.45600516678677294  0.22224442441674624  1.0000
  H   H60       1.0  0.22688445295736104  0.5439948335853885  0.7777555753340627  1.0000
  H   H61       1.0  0.8131465766863668  0.27302841423350954  0.23264401582902516  1.0000
  H   H62       1.0  0.18685342318485687  0.7269715861386519  0.7673559839217838  1.0000
  H   H63       1.0  0.7247760711938347  0.31089193689031114  0.3228931477776053  1.0000
  H   H64       1.0  0.2752239286773892  0.6891080634818503  0.6771068519732036  1.0000
  H   H65       1.0  0.6962741333620537  0.09299891483165307  0.05891441468988501  1.0000
  H   H66       1.0  0.30372586650917016  0.9070010855405085  0.941085585060924  1.0000
  H   H67       1.0  0.5602510626144036  0.0046786547079198165  0.03727384261835015  1.0000
  H   H68       1.0  0.4397489375553211  0.9953213447884652  0.9627261577319104  1.0000
  H   H69       1.0  0.3757909673827958  0.033573687893465216  0.1317431805892844  1.0000
  H   H70       1.0  0.6242090324271461  0.9664263124004961  0.8682568197582634  1.0000
  H   H71       1.0  0.23300683977782735  0.22568771073800958  0.43831080789236265  1.0000
  H   H72       1.0  0.7669931600321145  0.7743122895559519  0.561689192455185  1.0000
  H   H73       1.0  0.18114067145795745  0.14921394289881323  0.38760992805444044  1.0000
  H   H74       1.0  0.8188593284132665  0.8507860574733481  0.6123900716963685  1.0000
  H   H75       1.0  0.08363044518291875  0.3308866210483834  0.2944370197659931  1.0000
  H   H76       1.0  0.9163695550480879  0.6691133785262016  0.7055629799875285  1.0000
  H   H77       1.0  0.012371969736240338  0.3059823305625225  0.38719012536961156  1.0000
  H   H78       1.0  0.9876280301349833  0.6940176698096389  0.6128098743811973  1.0000
  H   H79       1.0  0.18238502540034682  0.4200859369017616  0.3775462238209934  1.0000
  H   H80       1.0  0.8176149747693781  0.5799140625946232  0.6224537765292669  1.0000
  H   H81       1.0  0.07189247331325335  0.41937021455967677  0.4529855029400672  1.0000
  H   H82       1.0  0.9281075265579706  0.5806297858124846  0.5470144968107418  1.0000
  H   H83       1.0  0.19905960104794618  0.5671933182479216  0.3859288881720121  1.0000
  H   H84       1.0  0.8009403988232776  0.4328066821242397  0.6140711115787969  1.0000
  H   H85       1.0  0.38436393690003884  0.5144561207827077  0.2270751788408531  1.0000
  H   H86       1.0  0.6156360629711851  0.4855438795894536  0.7729248209099558  1.0000
  H   H87       1.0  0.5703975127292655  0.2782387332663524  0.27404173989293257  1.0000
  H   H88       1.0  0.4296024871419583  0.7217612671058089  0.7259582598578764  1.0000
  H   H89       1.0  0.3689593579220531  0.22986429710390435  0.32723623231111304  1.0000
  H   H90       1.0  0.6310406418878889  0.770135703190057  0.6727637680364347  1.0000
  H   H91       1.0  0.22184965001613471  0.48911434259694864  0.26163135963967404  1.0000
  H   H92       1.0  0.7781503498550891  0.5108856577752128  0.7383686401111348  1.0000
  H   H93       1.0  0.3581314104770029  0.596538355880116  0.35246660865399293  1.0000
  H   H94       1.0  0.641868589394221  0.4034616444920454  0.6475333910968161  1.0000
  H   H95       1.0  0.38633331650111147  0.24978443188724248  0.5199497551512807  1.0000
  H   H96       1.0  0.6136666837298951  0.7502155676873425  0.48005024460224094  1.0000
  H   H97       1.0  0.3944006850488145  0.34245188541612265  0.5821246886331404  1.0000
  H   H98       1.0  0.6055993147611274  0.6575481148778388  0.41787531171440745  1.0000
  H   H99       1.0  0.5194947753417974  0.2750789638612284  0.5166620255167176  1.0000
  H   H100      1.0  0.4805052248892092  0.7249210357133566  0.4833379742368041  1.0000
  H   H101      1.0  0.9889470042358871  0.31854423972615326  0.19287179427483034  1.0000
  H   H102      1.0  0.011052995995119549  0.6814557598484317  0.8071282054786914  1.0000
  H   H103      1.0  0.9473836246907027  0.31920800860559534  0.09546893110750268  1.0000
  H   H104      1.0  0.052616375540303933  0.6807919909689897  0.904531068646019  1.0000
  H   H105      1.0  0.07585205726900261  0.34637684905587995  0.10790177524776177  1.0000
  H   H106      1.0  0.924147942962004  0.6536231505187049  0.8920982245057599  1.0000
  H   H107      1.0  0.148340346552762  0.16017684243322974  0.17546727876121312  1.0000
  H   H108      1.0  0.8516596533184618  0.8398231579389317  0.8245327209895958  1.0000
  H   H109      1.0  0.18268703546826698  0.2767683562008  0.9460302319835436  1.0000
  H   H110      1.0  0.817312964402957  0.7232316441713613  0.053969767767265336  1.0000
  H   H111      1.0  0.3159911395559285  0.17855626909166136  0.9068622326980721  1.0000
  H   H112      1.0  0.6840088602540133  0.8214437312023001  0.09313776764947566  1.0000
  H   H113      1.0  0.3144290019371322  0.22254366141782855  0.001351039235922127  1.0000
  H   H114      1.0  0.6855709982938745  0.7774563381567564  0.9986489605175997  1.0000
  H   H115      1.0  0.17660779511384916  0.141552069573538  0.04596548594362467  1.0000
  H   H116      1.0  0.8233922051171575  0.858447930001047  0.954034513809897  1.0000
  H   H117      1.0  0.19200448931825528  0.8219014747010218  0.24312293281872027  1.0000
  H   H118      1.0  0.8079955109127513  0.17809852487356315  0.7568770669348015  1.0000
  H   H119      1.0  0.2100201839508595  0.7623346156296513  0.1536061618543897  1.0000
  H   H120      1.0  0.7899798159203644  0.23766538474250992  0.8463938378964192  1.0000
  H   H121      1.0  0.23324013057753618  0.9271661574515297  0.0749989519385753  1.0000
  H   H122      1.0  0.7667598696534705  0.07283384212305508  0.9250010478149464  1.0000
  H   H123      1.0  0.3406939540833292  0.8586572776487459  0.14615361813922204  1.0000
  H   H124      1.0  0.6593060457266128  0.14134272264521572  0.8538463822083256  1.0000
  H   H125      1.0  0.22188412159805998  0.9800727317773563  0.16766330318593547  1.0000
  H   H126      1.0  0.7781158786329467  0.019927267797228792  0.8323366965675862  1.0000
  H   H127      1.0  0.019445329364482046  0.053535464405819216  0.16357363430553218  1.0000
  H   H128      1.0  0.9805546708665249  0.9464645351687656  0.8364263654479895  1.0000
  H   H129      1.0  0.893547494073666  0.026736145365883056  0.20077434098338764  1.0000
  H   H130      1.0  0.10645250579755794  0.9732638550062784  0.7992256587674214  1.0000
  H   H131      1.0  5.052059404509118e-06  0.941099369007064  0.33218433803380804  1.0000
  H   H132      1.0  0.9999949477505374  0.058900631286897404  0.6678156623137397  1.0000
  H   H133      1.0  0.9715856052720956  0.07895816831393948  0.30719467612528256  1.0000
  H   H134      1.0  0.028414394599128295  0.921041832058222  0.6928053236255264  1.0000
  H   H135      1.0  0.11762295855669933  0.9821049515427217  0.2915736357593911  1.0000
  H   H136      1.0  0.8823770413145245  0.017895048829439708  0.7084263639914179  1.0000
  H   H137      1.0  0.04470223813324004  0.7355973182711057  0.1922559228468674  1.0000
  H   H138      1.0  0.9552977617379841  0.26440268210105566  0.8077440769039415  1.0000
  H   H139      1.0  0.014827754499912148  0.8038112746643461  0.27854797971605  1.0000
  H   H140      1.0  0.9851722457310944  0.19618872491023892  0.7214520200374718  1.0000
  H   H141      1.0  0.8058418465048404  0.9199073718117138  0.23542107095972367  1.0000
  H   H142      1.0  0.1941581533663836  0.0800926285604477  0.7645789287910852  1.0000
  H   H143      1.0  0.8368975458603737  0.7817842054785066  0.24398966480585002  1.0000
  H   H144      1.0  0.1631024540108503  0.21821579489365467  0.756010334944959  1.0000
  H   H145      1.0  0.8371697944670291  0.8516295016892792  0.14797949653986145  1.0000
  H   H146      1.0  0.1628302057639776  0.14837049788530585  0.8520205032136602  1.0000
  H   H147      1.0  0.9166949097869601  0.9535882918524775  0.08480329011816633  1.0000
  H   H148      1.0  0.08330509002298177  0.046411708441483956  0.9151967102293813  1.0000
  H   H149      1.0  0.05118526972449502  0.9727279621325542  0.058891970234529786  1.0000
  H   H150      1.0  0.9488147305065118  0.027272037442030914  0.9411080295189919  1.0000
  H   H151      1.0  0.15911817918526205  0.7784235422365303  0.034291863615688166  1.0000
  H   H152      1.0  0.8408818206859618  0.22157645813563118  0.9657081361351207  1.0000
  H   H153      1.0  0.03380409402102261  0.8434637107135262  0.9767287984510565  1.0000
  H   H154      1.0  0.9661959058502013  0.15653628965863514  0.02327120129975238  1.0000
  H   H155      1.0  0.024990360768547396  0.7570492099386794  0.0627767366516174  1.0000
  H   H156      1.0  0.9750096391026765  0.24295079043348206  0.9372232630991916  1.0000
  H   H157      1.0  0.455315080737553  0.8896732651639516  0.6092460655190688  1.0000
  H   H158      1.0  0.5446849194934537  0.11032673441063351  0.39075393423445276  1.0000
  C   C1        1.0  0.34179631818164796  0.5664219697324607  0.10478345714273853  1.0000
  C   C2        1.0  0.6582036819880767  0.43357802976392434  0.8952165432075219  1.0000
  C   C3        1.0  0.378566208701944  0.6336775573042076  0.04949393110211552  1.0000
  C   C4        1.0  0.6214337915290626  0.3663224422703775  0.9505060686514061  1.0000
  C   C5        1.0  0.45330733740945217  0.6673330506777673  0.0880699182292099  1.0000
  C   C6        1.0  0.5466926627602726  0.33266694881861764  0.9119300821210504  1.0000
  C   C7        1.0  0.4607531585047978  0.6206718384943396  0.1664245207092038  1.0000
  C   C8        1.0  0.5392468416649268  0.3793281610020455  0.8335754796410566  1.0000
  C   C9        1.0  0.5249162258132115  0.6300410823612278  0.23492623473268087  1.0000
  C   C10       1.0  0.4750837740580123  0.3699589180109336  0.7650737650181281  1.0000
  C   C11       1.0  0.4362007698737306  0.7029311595567254  0.29309778973738815  1.0000
  C   C12       1.0  0.5637992299974933  0.297068840815436  0.7069022100134208  1.0000
  C   C13       1.0  0.4098350377598571  0.8094709579578293  0.302191871400747  1.0000
  C   C14       1.0  0.5901649621113668  0.19052904241433202  0.697808128350062  1.0000
  C   C15       1.0  0.3152835497720795  0.8421098557821227  0.3623526991171461  1.0000
  C   C16       1.0  0.6847164500378623  0.15789014451183872  0.6376473012304015  1.0000
  C   C17       1.0  0.28513231247081006  0.7551984515436291  0.3896028743242083  1.0000
  C   C18       1.0  0.7148676873391318  0.2448015487503324  0.6103971260233394  1.0000
  C   C19       1.0  0.19736301633598935  0.7432603226127911  0.4572736152893084  1.0000
  C   C20       1.0  0.8026369834739525  0.25673967768117023  0.5427263850582394  1.0000
  C   C21       1.0  0.09735737704212352  0.7193571583992686  0.4299876163624382  1.0000
  C   C22       1.0  0.9026426227678183  0.28064284189469285  0.5700123839851094  1.0000
  C   C23       1.0  0.9741108000161262  0.776456585296331  0.4364182212053487  1.0000
  C   C24       1.0  0.025889200214880462  0.22354341427825405  0.5635817785481729  1.0000
  C   C25       1.0  0.9190450644394215  0.7152457615984305  0.40781742759936956  1.0000
  C   C26       1.0  0.08095493543180238  0.28475423877373096  0.5921825721514394  1.0000
  C   C27       1.0  0.00935235689891738  0.621658935415421  0.38419100339840206  1.0000
  C   C28       1.0  0.9906476433320891  0.3783410641591639  0.6158089963551197  1.0000
  C   C29       1.0  0.002936858576777881  0.5289329892105965  0.3478214564423616  1.0000
  C   C30       1.0  0.997063141592947  0.47106701028578846  0.6521785439078988  1.0000
  C   C31       1.0  0.03376718581518509  0.537374020683718  0.25855223331725863  1.0000
  C   C32       1.0  0.9662328144158217  0.46262597889086704  0.7414477664362631  1.0000
  C   C33       1.0  0.9624135012833523  0.5671873904521135  0.19411752426257747  1.0000
  C   C34       1.0  0.037586498947654305  0.43281260912247144  0.8058824754909442  1.0000
  C   C35       1.0  0.03794536510930444  0.5622372733427438  0.1230170720699055  1.0000
  C   C36       1.0  0.9620546347619194  0.4377627270294176  0.8769829276809035  1.0000
  C   C37       1.0  0.15461507246730727  0.5292571566500142  0.1449157208734524  1.0000
  C   C38       1.0  0.8453849277024175  0.4707428428463708  0.8550842794768079  1.0000
  C   C39       1.0  0.27155816172194913  0.499987331597232  0.09428794899659297  1.0000
  C   C40       1.0  0.7284418385090574  0.500012667977353  0.9057120507569287  1.0000
  C   C41       1.0  0.614158686401853  0.6804280793893971  0.20095505534078464  1.0000
  C   C42       1.0  0.3858413134693708  0.3195719209827644  0.7990449444100244  1.0000
  C   C43       1.0  0.14111912564952636  0.8480956547433827  0.4970102486089257  1.0000
  C   C44       1.0  0.8588808745814803  0.15190434483120221  0.502989751144596  1.0000
  C   C45       1.0  0.2663320281980515  0.6526120415360075  0.520566928509946  1.0000
  C   C46       1.0  0.7336679716118903  0.34738795875795386  0.4794330718376017  1.0000
  C   C47       1.0  0.87493506498715  0.5333756646809036  0.36305237920711114  1.0000
  C   C48       1.0  0.1250649351825747  0.4666243348154814  0.6369476211431493  1.0000
  C   C49       1.0  0.2457757291075322  0.5136501925116427  0.005988000513868267  1.0000
  C   C50       1.0  0.7542242710621926  0.4863498069847423  0.9940119998363921  1.0000
  C   C51       1.0  0.34988679816492535  0.38098023031565537  0.11729669946649304  1.0000
  C   C52       1.0  0.6501132020660813  0.6190197692589297  0.8827033002870287  1.0000
  C   C53       1.0  0.5931375097802278  0.5170821377478546  0.27829269194889455  1.0000
  C   C54       1.0  0.40686249038949684  0.4829178617485304  0.7217073084013658  1.0000
  C   C55       1.0  0.6913632194669247  0.43973385363113293  0.22625020501827509  1.0000
  C   C56       1.0  0.30863678076408185  0.560266145943452  0.7737497947352465  1.0000
  C   C57       1.0  0.7235802057920389  0.3215558365232706  0.2575224263271414  1.0000
  C   C58       1.0  0.2764197944389677  0.6784441630513145  0.7424775734263802  1.0000
  C   C59       1.0  0.6735485517472272  0.21623348773792894  0.17446964006129217  1.0000
  C   C60       1.0  0.32645144812399673  0.7837665126342325  0.8255303596895167  1.0000
  C   C61       1.0  0.5927221158218627  0.16045186864310151  0.16393304294998964  1.0000
  C   C62       1.0  0.40727788434786194  0.8395481308532835  0.8360669574002708  1.0000
  C   C63       1.0  0.6178740749532331  0.10042788028796922  0.09889249678107294  1.0000
  C   C64       1.0  0.3821259249179907  0.8995721200841923  0.901107502969736  1.0000
  C   C65       1.0  0.5407840014834817  0.0524476957567744  0.08720627331278237  1.0000
  C   C66       1.0  0.4592159987475249  0.9475523038178105  0.9127937264407393  1.0000
  C   C67       1.0  0.44058372558042236  0.06681844098549207  0.13973999728311629  1.0000
  C   C68       1.0  0.5594162742908014  0.9331815593866694  0.8602600024676927  1.0000
  C   C69       1.0  0.42352021270967544  0.1270077287443242  0.20380276046881418  1.0000
  C   C70       1.0  0.5764797874600494  0.8729922707520607  0.7961972398814463  1.0000
  C   C71       1.0  0.3147608430263826  0.14577109483953396  0.26043912274755465  1.0000
  C   C72       1.0  0.685239157143342  0.8542289046568512  0.7395608776027057  1.0000
  C   C73       1.0  0.2029299463451849  0.2203658222112498  0.38103964317727057  1.0000
  C   C74       1.0  0.7970700534647571  0.7796341780827116  0.6189603571702771  1.0000
  C   C75       1.0  0.09082128596478051  0.32066248951346094  0.35939557765216634  1.0000
  C   C76       1.0  0.9091787138451612  0.6793375107805006  0.6406044226953814  1.0000
  C   C77       1.0  0.09158965514448626  0.4213982448192236  0.38791868445726313  1.0000
  C   C78       1.0  0.9084103450865204  0.5786017547553615  0.6120813152962585  1.0000
  C   C79       1.0  0.39715517609590995  0.3830366446764633  0.3870463034657019  1.0000
  C   C80       1.0  0.6028448241350967  0.6169633548981217  0.6129536962878197  1.0000
  C   C81       1.0  0.42160922006544094  0.31090540769112607  0.5240382606466614  1.0000
  C   C82       1.0  0.5783907797445009  0.6890945926028353  0.47596173970088634  1.0000
  C   C83       1.0  0.02372529308411022  0.2981896691219452  0.13197780839091872  1.0000
  C   C84       1.0  0.9762747067871138  0.701810331250216  0.8680221913598902  1.0000
  C   C85       1.0  0.2612958819831125  0.2031660890739863  0.9620201350854335  1.0000
  C   C86       1.0  0.7387041182478943  0.7968339105005987  0.037979864668088066  1.0000
  C   C87       1.0  0.17886102466953302  0.8390632804597749  0.17894154195816742  1.0000
  C   C88       1.0  0.8211389751404088  0.16093671983418645  0.8210584583893803  1.0000
  C   C89       1.0  0.24542487310859748  0.9067088830994772  0.13912167222918512  1.0000
  C   C90       1.0  0.7545751271224093  0.09329111647510785  0.8608783275243365  1.0000
  C   C91       1.0  0.9902730889905268  0.9986555774542796  0.20509333009593317  1.0000
  C   C92       1.0  0.009726911240479646  0.0013444221203055945  0.7949066696575885  1.0000
  C   C93       1.0  0.022785821879009027  0.9982140053390827  0.2887427116621764  1.0000
  C   C94       1.0  0.977214177992215  0.0017859950330785408  0.7112572880886325  1.0000
  C   C95       1.0  0.9934063272055009  0.8126674515211674  0.2161678848404075  1.0000
  C   C96       1.0  0.006593672665722976  0.18733254885099412  0.7838321149104014  1.0000
  C   C97       1.0  0.8606276974336571  0.8450925339698442  0.20954093609325944  1.0000
  C   C98       1.0  0.13937230243756688  0.15490746640231703  0.7904590636575496  1.0000
  C   C99       1.0  0.014472390233384666  0.9136200853911243  0.08457936762447368  1.0000
  C   C100      1.0  0.9855276096378391  0.08637991498103702  0.9154206321263353  1.0000
  C   C101      1.0  0.0612497523235936  0.816918296957202  0.038047814326639375  1.0000
  C   C102      1.0  0.938750247907413  0.183081702617383  0.9619521854268823  1.0000
  C   C103      1.0  0.37883796118353474  0.9665667491911347  0.6018648206179219  1.0000
  C   C104      1.0  0.6211620386264071  0.03343325110282657  0.3981351797296258  1.0000
  N   N1        1.0  0.39256801490397514  0.5598177695698205  0.17533800160866542  1.0000
  N   N2        1.0  0.6074319849672487  0.4401822308023408  0.8246619981421435  1.0000
  N   N3        1.0  0.3599583631537941  0.6714416884439398  0.3468348506389584  1.0000
  N   N4        1.0  0.6400416367174298  0.32855831192822155  0.6531651491118505  1.0000
  N   N5        1.0  0.11656784095786271  0.6257684015070939  0.398203320669943  1.0000
  N   N6        1.0  0.8834321589133612  0.3742315988650674  0.601796679080866  1.0000
  N   N7        1.0  0.14982052851997796  0.5147620570471259  0.22742756251373017  1.0000
  N   N8        1.0  0.8501794713512458  0.4852379433250356  0.7725724372370788  1.0000
  N   N9        1.0  0.6424090235663603  0.27708839719594297  0.2358014328108399  1.0000
  N   N10       1.0  0.3575909766033642  0.7229116023004422  0.7641985675394204  1.0000
  N   N11       1.0  0.49892370364047245  0.17159686649649053  0.21631611281739424  1.0000
  N   N12       1.0  0.5010762961694695  0.8284031337974708  0.7836838875301534  1.0000
  N   N13       1.0  0.3042436473861254  0.20131452968051328  0.3220783469558207  1.0000
  N   N14       1.0  0.6957563527835994  0.7986854698158716  0.6779216533944398  1.0000
  N   N15       1.0  0.04436338280923736  0.8907902075085493  0.17146156058792933  1.0000
  N   N16       1.0  0.9556366174217693  0.10920979206603572  0.8285384391655923  1.0000
  O   O1        1.0  0.7638449406130208  0.2038637164335434  0.12794361705057852  1.0000
  O   O2        1.0  0.23615505925820304  0.7961362839386179  0.8720563827002304  1.0000
  O   O3        1.0  0.2379265758414843  0.11017861567411238  0.24955468873828907  1.0000
  O   O4        1.0  0.7620734240297398  0.8898213846980488  0.75044531101252  1.0000
  O   O5        1.0  0.34595667430034904  0.4668799364279324  0.3391992463275113  1.0000
  O   O6        1.0  0.6540433258693757  0.5331200630684526  0.6608007540227492  1.0000
  O   O7        1.0  0.37136249186842885  0.40161197086376055  0.4657362783462026  1.0000
  O   O8        1.0  0.6286375083625778  0.5983880287108244  0.5342637214073191  1.0000
  O   O9        1.0  0.46375112089433596  0.2909309167895635  0.36882419381119486  1.0000
  O   O10       1.0  0.5362488789768879  0.7090690835825979  0.6311758059396142  1.0000
  O   O11       1.0  0.09317698672737179  0.18562254972685305  0.13105595374873152  1.0000
  O   O12       1.0  0.9068230134423529  0.814377449769532  0.8689440466015288  1.0000
  O   O13       1.0  0.22854545218346142  0.1173666033963403  0.9969650003745788  1.0000
  O   O14       1.0  0.7714545476877624  0.8826333969758211  0.0030349993762301035  1.0000
  Cl  Cl1       1.0  0.40687470895516864  0.06287422812812163  0.6470926395977924  1.0000
  Cl  Cl2       1.0  0.5931252912758379  0.9371257714464634  0.3529073601557293  1.0000
  Cl  Cl3       1.0  0.2507021309186824  0.9481445204425958  0.6478692096904659  1.0000
  Cl  Cl4       1.0  0.7492978693123243  0.05185547913198926  0.3521307900630557  1.0000
  Cl  Cl5       1.0  0.3604463638223674  0.003737111437436707  0.4986554967743081  1.0000
  Cl  Cl6       1.0  0.6395536360488564  0.9962628889347247  0.5013445029765008  1.0000
