data_image0
_chemical_formula_structural       H56C72N16F16I8
_chemical_formula_sum              "H56 C72 N16 F16 I8"
_cell_length_a       7.3439344255248615
_cell_length_b       23.605969239355407
_cell_length_c       11.478057987859279
_cell_angle_alpha    90.0
_cell_angle_beta     107.71382604495898
_cell_angle_gamma    90.0

_space_group_name_H-M_alt    "P 1"
_space_group_IT_number       1

loop_
  _space_group_symop_operation_xyz
  'x, y, z'

loop_
  _atom_site_type_symbol
  _atom_site_label
  _atom_site_symmetry_multiplicity
  _atom_site_fract_x
  _atom_site_fract_y
  _atom_site_fract_z
  _atom_site_occupancy
  H   H1        1.0  0.8509099283068243  0.2815526260586404  0.006806966808653992  1.0000
  H   H2        1.0  0.14909007137822325  0.7815526260722936  0.49319303326004055  1.0000
  H   H3        1.0  0.149090071214567  0.718447373968666  0.9931930333875777  1.0000
  H   H4        1.0  0.8509099281431681  0.21844737395501282  0.5068069669361911  1.0000
  H   H5        1.0  0.18939482721592993  0.5409339163549923  0.46760919779309673  1.0000
  H   H6        1.0  0.8106051738277151  0.04093391676496083  0.03239080226921108  1.0000
  H   H7        1.0  0.8106051736640589  0.45906608324869236  0.5323908023967483  1.0000
  H   H8        1.0  0.18939482660784976  0.9590660832623457  0.9676091970060662  1.0000
  H   H9        1.0  0.18324349656418812  0.4086671609279545  0.3340045856187427  1.0000
  H   H10       1.0  0.8167565031208595  0.9086671609416077  0.16599541444995186  1.0000
  H   H11       1.0  0.8167565029572031  0.5913328390993519  0.665995414577489  1.0000
  H   H12       1.0  0.1832434977591294  0.09133283908569867  0.8340045857398931  1.0000
  H   H13       1.0  0.024775714867533296  0.4650397837381814  0.3388228851418929  1.0000
  H   H14       1.0  0.9752242848175142  0.9650397837518346  0.16117711492680167  1.0000
  H   H15       1.0  0.975224284653858  0.534960216289125  0.6611771150543388  1.0000
  H   H16       1.0  0.024775716062474695  0.03496021627547182  0.8388228852630434  1.0000
  H   H17       1.0  0.01737565601952417  0.39932670056539493  0.41536429842251116  1.0000
  H   H18       1.0  0.9826243436655234  0.8993267005790482  0.08463570164618334  1.0000
  H   H19       1.0  0.9826243435018672  0.6006732994619115  0.5846357017737206  1.0000
  H   H20       1.0  0.017375655855868005  0.10067329944825826  0.9153642985500484  1.0000
  H   H21       1.0  0.3285791657822903  0.6030077691649444  0.7138599184272488  1.0000
  H   H22       1.0  0.6714208344896185  0.10300776915129109  0.7861400809755656  1.0000
  H   H23       1.0  0.6714208346532747  0.3969922308623621  0.2861400808480285  1.0000
  H   H24       1.0  0.328579164587349  0.8969922304523937  0.2138599183060984  1.0000
  H   H25       1.0  0.4256907278263604  0.6148826410313644  0.5928489272532914  1.0000
  H   H26       1.0  0.5743092710869507  0.11488264101771119  0.9071510721559096  1.0000
  H   H27       1.0  0.574309271695031  0.38511735899594196  0.4071510729429403  1.0000
  H   H28       1.0  0.4256907279900166  0.8851173590095953  0.09284892712575424  1.0000
  H   H29       1.0  0.5770495918719064  0.595292909497315  0.7424735031631239  1.0000
  H   H30       1.0  0.4229504088444262  0.09529290948366181  0.757526497154258  1.0000
  H   H31       1.0  0.4229504076494848  0.4047070905299913  0.25752649703310765  1.0000
  H   H32       1.0  0.5770495920355627  0.9047070905436445  0.24247350303558696  1.0000
  H   H33       1.0  0.9849184296705331  0.4160989892177041  0.10930245966463564  1.0000
  H   H34       1.0  0.015081570014514444  0.9160989892313574  0.39069754040405896  1.0000
  H   H35       1.0  0.015081569850858158  0.5839010108096023  0.8906975405315961  1.0000
  H   H36       1.0  0.9849184295068769  0.0839010107959491  0.6093024597921728  1.0000
  H   H37       1.0  0.9094386829554154  0.3527044047875473  0.16580547945437316  1.0000
  H   H38       1.0  0.09056131672963232  0.8527044048012006  0.3341945206143214  1.0000
  H   H39       1.0  0.090561316565976  0.647295595239759  0.8341945207418585  1.0000
  H   H40       1.0  0.9094386841503568  0.14729559522610586  0.6658054795755236  1.0000
  H   H41       1.0  0.7593269920421561  0.4145147670397961  0.13357957474387253  1.0000
  H   H42       1.0  0.24067300900148889  0.9145147666298277  0.36642042531843527  1.0000
  H   H43       1.0  0.24067300883783263  0.5854852329875103  0.8664204254459724  1.0000
  H   H44       1.0  0.7593269918785001  0.08548523297385704  0.6335795748714097  1.0000
  H   H45       1.0  0.5516500267946043  0.21949001108422533  0.764791751384002  1.0000
  H   H46       1.0  0.4483499721187069  0.7194900110978786  0.7352082480251992  1.0000
  H   H47       1.0  0.4483499722823632  0.7805099889430811  0.23520824789766204  1.0000
  H   H48       1.0  0.5516500274026843  0.28050998892942786  0.26479175217103246  1.0000
  H   H49       1.0  0.802117200128043  0.21412901451946592  0.8375820317521145  1.0000
  H   H50       1.0  0.19788280014386578  0.7141290145331192  0.6624179676506999  1.0000
  H   H51       1.0  0.19788280075194592  0.7858709855078404  0.16241796843773046  1.0000
  H   H52       1.0  0.8021171989331017  0.28587098549418727  0.3375820316309641  1.0000
  H   H53       1.0  0.7088692963086549  0.2389424243846054  0.6825133378073085  1.0000
  H   H54       1.0  0.29113070440767763  0.7389424243982586  0.8174866625100735  1.0000
  H   H55       1.0  0.2911307032127363  0.7610575756427009  0.31748666238892315  1.0000
  H   H56       1.0  0.7088692964723112  0.2610575756290478  0.1825133376797714  1.0000
  C   C1        1.0  0.052577764924321806  0.161600487627517  0.2070429698270214  1.0000
  C   C2        1.0  0.9474222347607258  0.6616004876411702  0.2929570302416732  1.0000
  C   C3        1.0  0.9474222345970694  0.8383995123997894  0.7929570303692103  1.0000
  C   C4        1.0  0.05257776611926319  0.3383995123861362  0.7070429699481718  1.0000
  C   C5        1.0  0.09083137525202156  0.11136582376025267  0.27375373262460995  1.0000
  C   C6        1.0  0.909168624433026  0.6113658237739058  0.22624626744408463  1.0000
  C   C7        1.0  0.9091686242693697  0.8886341762670538  0.7262462675716217  1.0000
  C   C8        1.0  0.0908313764469628  0.3886341762534005  0.7737537327457603  1.0000
  C   C9        1.0  0.20084346277469683  0.11030181661251288  0.3964249844181473  1.0000
  C   C10       1.0  0.7991565369103507  0.6103018166261661  0.1035750156505473  1.0000
  C   C11       1.0  0.7991565367466945  0.8896981834147936  0.6035750157780845  1.0000
  C   C12       1.0  0.20084346261104055  0.3896981834011403  0.8964249845456844  1.0000
  C   C13       1.0  0.27029585776372145  0.16225391260844443  0.44995518541448754  1.0000
  C   C14       1.0  0.7297041414769022  0.6622539126220977  0.05004481373963937  1.0000
  C   C15       1.0  0.7297041426718436  0.8377460874188619  0.5500448138607898  1.0000
  C   C16       1.0  0.27029585760006525  0.33774608740520873  0.9499551855420247  1.0000
  C   C17       1.0  0.23610203227465365  0.213759389366119  0.38722031087032127  1.0000
  C   C18       1.0  0.7638979687689915  0.7137593893797722  0.11277968919198651  1.0000
  C   C19       1.0  0.7638979686053352  0.7862406106611873  0.6127796893195236  1.0000
  C   C20       1.0  0.23610203211099742  0.2862406106475342  0.8872203109978585  1.0000
  C   C21       1.0  0.12768036828250265  0.21221939710266247  0.26416448454085845  1.0000
  C   C22       1.0  0.872319631402545  0.7122193971163155  0.23583551552783608  1.0000
  C   C23       1.0  0.8723196307944648  0.7877806029246439  0.7358355147408057  1.0000
  C   C24       1.0  0.12768036811884642  0.2877806029109907  0.7641644846683956  1.0000
  C   C25       1.0  0.6902662413659698  0.29895537346691486  0.818443520767668  1.0000
  C   C26       1.0  0.3097337579917654  0.798955373480568  0.6815564795561009  1.0000
  C   C27       1.0  0.3097337581554216  0.7010446265603916  0.18155647942856373  1.0000
  C   C28       1.0  0.690266241529626  0.2010446265467383  0.3184435206401308  1.0000
  C   C29       1.0  0.777831635853907  0.3134082352215257  0.9405468766149575  1.0000
  C   C30       1.0  0.22216836486242572  0.8134082352351789  0.5594531237024247  1.0000
  C   C31       1.0  0.22216836502608198  0.6865917648057807  0.05945312357488759  1.0000
  C   C32       1.0  0.7778316346589657  0.18659176479212744  0.44054687649380697  1.0000
  C   C33       1.0  0.7712159609692792  0.36989537355842256  0.9753059197591921  1.0000
  C   C34       1.0  0.22878403930262944  0.8698953735720757  0.5246940796436222  1.0000
  C   C35       1.0  0.2287840394662857  0.6301046260452622  0.024694079516085092  1.0000
  C   C36       1.0  0.7712159615773595  0.13010462603160897  0.4753059205462227  1.0000
  C   C37       1.0  0.597166276360037  0.3915753857117373  0.7782989591480743  1.0000
  C   C38       1.0  0.40283372255327415  0.8915753857253905  0.7217010402611268  1.0000
  C   C39       1.0  0.4028337231613543  0.608424614315569  0.2217010410481573  1.0000
  C   C40       1.0  0.5971662765236933  0.10842461430191586  0.27829895902053725  1.0000
  C   C41       1.0  0.48519046675890776  0.4342276153148076  0.6874640045556113  1.0000
  C   C42       1.0  0.5148095339574248  0.9342276149048391  0.8125359957617707  1.0000
  C   C43       1.0  0.5148095341210811  0.5657723847124988  0.3125359956342337  1.0000
  C   C44       1.0  0.4851904655639664  0.06577238469884562  0.1874640044344609  1.0000
  C   C45       1.0  0.4090317592013813  0.5272896564335219  0.6402936119394886  1.0000
  C   C46       1.0  0.5909682401563536  0.027289656419868774  0.8597063883842802  1.0000
  C   C47       1.0  0.5909682403200099  0.4727103435937844  0.35970638825674306  1.0000
  C   C48       1.0  0.40903175936503766  0.9727103436074376  0.1402936118119515  1.0000
  C   C49       1.0  0.2747476145983265  0.5100563487953091  0.5313485124640656  1.0000
  C   C50       1.0  0.7252523856735824  0.010056348781655969  0.968651486938749  1.0000
  C   C51       1.0  0.7252523862816624  0.4899436508083756  0.4686514877257795  1.0000
  C   C52       1.0  0.2747476147619827  0.9899436508220287  0.031348512336528314  1.0000
  C   C53       1.0  0.2538533714225882  0.4522883767975096  0.5054799063148712  1.0000
  C   C54       1.0  0.746146627490723  0.952288376811163  0.9945200930943301  1.0000
  C   C55       1.0  0.7461466276543793  0.5477116232297968  0.49452009296679283  1.0000
  C   C56       1.0  0.2538533720306683  0.047711623216143556  0.005479907101901732  1.0000
  C   C57       1.0  0.11093676792442204  0.43061613386553627  0.39169952659851476  1.0000
  C   C58       1.0  0.8890632317606255  0.9306161338791895  0.10830047347017985  1.0000
  C   C59       1.0  0.8890632315969693  0.5693838661617701  0.608300473597717  1.0000
  C   C60       1.0  0.11093676776076582  0.06938386614811688  0.8916995267260519  1.0000
  C   C61       1.0  0.43844469700815764  0.5885412168053545  0.673644990872805  1.0000
  C   C62       1.0  0.5615553023495774  0.08854121679170134  0.8263550094509639  1.0000
  C   C63       1.0  0.5615553025132337  0.41145878322195184  0.3263550093234267  1.0000
  C   C64       1.0  0.43844469717181384  0.9114587832356051  0.17364499074526782  1.0000
  C   C65       1.0  0.8614503648995568  0.38871351847320135  0.10404942182288238  1.0000
  C   C66       1.0  0.13854963478549076  0.8887135184868545  0.39595057824581226  1.0000
  C   C67       1.0  0.13854963462183445  0.611286481554105  0.8959505783733492  1.0000
  C   C68       1.0  0.8614503647359005  0.11128648154045187  0.6040494219504194  1.0000
  C   C69       1.0  0.6904548397026794  0.23947836467461084  0.7736973279045681  1.0000
  C   C70       1.0  0.3095451596550557  0.739478364688264  0.7263026724192008  1.0000
  C   C71       1.0  0.30954515981871195  0.7605216353526956  0.2263026722916636  1.0000
  C   C72       1.0  0.6904548398663356  0.2605216353390424  0.273697327777031  1.0000
  N   N1        1.0  0.5985622930036448  0.33850794555293595  0.7372896537283835  1.0000
  N   N2        1.0  0.40143770771268794  0.8385079455665891  0.7627103465889988  1.0000
  N   N3        1.0  0.4014377065177465  0.6614920544743705  0.26271034646784835  1.0000
  N   N4        1.0  0.598562293167301  0.16149205446071727  0.23728965360084622  1.0000
  N   N5        1.0  0.6818701641894443  0.4095623412861823  0.8931906542112216  1.0000
  N   N6        1.0  0.3181298365268883  0.9095623412998355  0.6068093461061606  1.0000
  N   N7        1.0  0.31812983669054457  0.5904376587411241  0.10680934597862339  1.0000
  N   N8        1.0  0.6818701643531007  0.0904376587274709  0.3931906540836844  1.0000
  N   N9        1.0  0.5135046848375596  0.4889111560290735  0.7192282669156868  1.0000
  N   N10       1.0  0.4864953140757516  0.9889111560427266  0.7807717324935144  1.0000
  N   N11       1.0  0.48649531423940784  0.511088843998233  0.2807717323659773  1.0000
  N   N12       1.0  0.5135046854456397  0.011088843984579716  0.21922826770271722  1.0000
  N   N13       1.0  0.36243682590638004  0.4139828642878826  0.5835741368487167  1.0000
  N   N14       1.0  0.6375631748099526  0.9139828643015359  0.9164258634686654  1.0000
  N   N15       1.0  0.6375631749736089  0.5860171357394238  0.41642586334112824  1.0000
  N   N16       1.0  0.3624368247114388  0.0860171357257706  0.08357413672756632  1.0000
  F   F1        1.0  0.08967069768896041  0.2606416359190345  0.1976609824354647  1.0000
  F   F2        1.0  0.9103293019960873  0.7606416359326876  0.3023390176332299  1.0000
  F   F3        1.0  0.9103293018324311  0.7393583641082718  0.8023390177607671  1.0000
  F   F4        1.0  0.0896706975253041  0.2393583640946187  0.6976609825630018  1.0000
  F   F5        1.0  0.9410354082324712  0.1610909758223441  0.08884973989728576  1.0000
  F   F6        1.0  0.05896459145257635  0.6610909758359973  0.4111502601714089  1.0000
  F   F7        1.0  0.05896459128892003  0.8389090242049623  0.911150260298946  1.0000
  F   F8        1.0  0.9410354080688149  0.3389090241913091  0.5888497400248229  1.0000
  F   F9        1.0  0.017241114469676928  0.06273892484494491  0.21575190562964247  1.0000
  F   F10       1.0  0.9827588852153707  0.5627389248585981  0.2842480944390521  1.0000
  F   F11       1.0  0.9827588850517145  0.9372610751823615  0.7842480945665894  1.0000
  F   F12       1.0  0.017241115664618285  0.43726107516870827  0.715751905750793  1.0000
  F   F13       1.0  0.3748903659404034  0.1625791244191589  0.5700338330963516  1.0000
  F   F14       1.0  0.6251096347759292  0.6625791244328121  0.9299661672210305  1.0000
  F   F15       1.0  0.6251096349395855  0.8374208756081475  0.4299661670934934  1.0000
  F   F16       1.0  0.3748903661040597  0.3374208755944943  0.07003383296881442  1.0000
  I   I1        1.0  0.3295825400714524  0.290452390261067  0.4796253248132422  1.0000
  I   I2        1.0  0.6704174609721928  0.7904523898510986  0.020374675249065534  1.0000
  I   I3        1.0  0.6704174608085365  0.7095476097662393  0.5203746753766026  1.0000
  I   I4        1.0  0.3295825399077961  0.20954760975258618  0.9796253249407794  1.0000
  I   I5        1.0  0.26012194612974016  0.03479069135745539  0.4970644773026657  1.0000
  I   I6        1.0  0.7398780535553073  0.5347906913711086  0.0029355227660289077  1.0000
  I   I7        1.0  0.7398780533916511  0.9652093086698511  0.502935522893566  1.0000
  I   I8        1.0  0.26012194552166  0.46520930865619775  0.9970644765156351  1.0000
