data_image0
_chemical_formula_structural       H16C24N40O30
_chemical_formula_sum              "H16 C24 N40 O30"
_cell_length_a       8.426489840206346
_cell_length_b       10.706655597778722
_cell_length_c       13.076918077758416
_cell_angle_alpha    90.0
_cell_angle_beta     100.01818332626347
_cell_angle_gamma    90.0

_space_group_name_H-M_alt    "P 1"
_space_group_IT_number       1

loop_
  _space_group_symop_operation_xyz
  'x, y, z'

loop_
  _atom_site_type_symbol
  _atom_site_label
  _atom_site_symmetry_multiplicity
  _atom_site_fract_x
  _atom_site_fract_y
  _atom_site_fract_z
  _atom_site_occupancy
  H   H1        1.0  0.011348114350524546  0.17246261011543954  0.3918561223191732  1.0000
  H   H2        1.0  0.9886518857936281  0.6724626102191731  0.608143878097239  1.0000
  H   H3        1.0  0.07078447069597797  0.9701220203772046  0.33908041036879666  1.0000
  H   H4        1.0  0.9292155294461157  0.470122020273471  0.6609195892826797  1.0000
  H   H5        1.0  0.1323155578828757  0.20213173667872447  0.10666417133937342  1.0000
  H   H6        1.0  0.8676844422612768  0.702131736782458  0.8933358290770388  1.0000
  H   H7        1.0  0.5644649350170182  0.16316054477015446  0.1933929077399224  1.0000
  H   H8        1.0  0.4355350651271343  0.663160544873888  0.8066070926764898  1.0000
  H   H9        1.0  0.6205864989553338  0.9521687745438484  0.14644575226807505  1.0000
  H   H10       1.0  0.37941350118675987  0.45216877444011483  0.8535542473834014  1.0000
  H   H11       1.0  0.8780779206960377  0.1909191615749819  0.994452606662651  1.0000
  H   H12       1.0  0.121922079446056  0.6909191616787154  0.00554739298882538  1.0000
  H   H13       1.0  0.9696401638232514  0.48385632868164546  0.4373322815581738  1.0000
  H   H14       1.0  0.03035983631884243  0.983856328785379  0.5626677180933025  1.0000
  H   H15       1.0  0.9959127811670354  0.6320800784330848  0.41066031065536673  1.0000
  H   H16       1.0  0.004087218977117204  0.13208007832935117  0.5893396897610454  1.0000
  C   C1        1.0  0.9567027737290305  0.15629095516504385  0.3106929364437857  1.0000
  C   C2        1.0  0.043297226415121896  0.6562909552687775  0.6893070639726265  1.0000
  C   C3        1.0  0.9945952759862716  0.020100920220563527  0.2760853060356377  1.0000
  C   C4        1.0  0.005404724155822041  0.520100920324297  0.7239146936158387  1.0000
  C   C5        1.0  0.039799913242091346  0.16543402221394654  0.14763670290250294  1.0000
  C   C6        1.0  0.9602000856948956  0.6654340223176801  0.8523632966151914  1.0000
  C   C7        1.0  0.6928081418875511  0.14762347079959431  0.19405058746918108  1.0000
  C   C8        1.0  0.30719185705149443  0.6476234709033278  0.805949412813449  1.0000
  C   C9        1.0  0.7293523125229443  0.009656318824848478  0.16228832096461754  1.0000
  C   C10       1.0  0.27064768762120817  0.5096563179945836  0.8377116794517947  1.0000
  C   C11       1.0  0.8691503459521495  0.15838468086634042  0.07231210779410242  1.0000
  C   C12       1.0  0.13084965418994435  0.6583846800360754  0.927687891857374  1.0000
  C   C13       1.0  0.6542688244798714  0.5866477960963934  0.46290116331669756  1.0000
  C   C14       1.0  0.3457311756642809  0.08664779599265982  0.5370988370997146  1.0000
  C   C15       1.0  0.4815001497475801  0.6001679087663135  0.4391570353519388  1.0000
  C   C16       1.0  0.5184998503965724  0.10016790866258  0.5608429650644734  1.0000
  C   C17       1.0  0.37777635334891363  0.615518121397987  0.3398256699850119  1.0000
  C   C18       1.0  0.62222364679318  0.11551812129425344  0.6601743296664644  1.0000
  C   C19       1.0  0.4236300520139388  0.6081846381003371  0.2402394595782199  1.0000
  C   C20       1.0  0.576369948128155  0.10818463799660355  0.7597605400732566  1.0000
  C   C21       1.0  0.5833595756834465  0.5856147732351467  0.21901855556977237  1.0000
  C   C22       1.0  0.416640424460706  0.08561477313141316  0.7809814448466398  1.0000
  C   C23       1.0  0.7314597523244  0.5711826540183805  0.291595593412314  1.0000
  C   C24       1.0  0.2685402478176939  0.07118265391464694  0.7084044062391625  1.0000
  N   N1        1.0  0.025829561702473854  0.2379923484723509  0.24002245388842755  1.0000
  N   N2        1.0  0.9741704384396198  0.7379923485760844  0.7599775457630488  1.0000
  N   N3        1.0  0.07784753922000502  0.03987152721047325  0.18842618716497067  1.0000
  N   N4        1.0  0.9221524609220888  0.5398715273142067  0.8115738124865058  1.0000
  N   N5        1.0  0.7833746313884327  0.17082589920791436  0.29729105098288494  1.0000
  N   N6        1.0  0.21662536755061296  0.6708258983776494  0.7027089492997453  1.0000
  N   N7        1.0  0.8469487320388771  0.9504942152161233  0.24248196745638967  1.0000
  N   N8        1.0  0.1530512681032166  0.4504942151123898  0.7575180321950867  1.0000
  N   N9        1.0  0.7490332146916886  0.22756480002079124  0.11622142730793977  1.0000
  N   N10       1.0  0.2509667854504051  0.7275648001245247  0.8837785723435365  1.0000
  N   N11       1.0  0.7996639737368909  0.03202093752517148  0.06943475606532894  1.0000
  N   N12       1.0  0.20033602640726153  0.5320209366949066  0.9305652443510831  1.0000
  N   N13       1.0  0.15598661140464606  0.31687345212671864  0.2832552752171565  1.0000
  N   N14       1.0  0.8440133887395064  0.8168734522304523  0.7167447251992557  1.0000
  N   N15       1.0  0.23995545716074498  0.9971922569560415  0.19861579310600064  1.0000
  N   N16       1.0  0.7600445429834075  0.497192256852308  0.8013842073104116  1.0000
  N   N17       1.0  0.7290937461101906  0.2705751374501131  0.35386125271944613  1.0000
  N   N18       1.0  0.2709062540319031  0.7705751375538465  0.6461387469320303  1.0000
  N   N19       1.0  0.7889170819460088  0.87781375091115  0.31712418023222266  1.0000
  N   N20       1.0  0.2110829181981436  0.3778137508074164  0.6828758201841896  1.0000
  N   N21       1.0  0.6254944269139394  0.29138331680784085  0.04459621522404133  1.0000
  N   N22       1.0  0.3745055732302131  0.7913833169115744  0.9554037851923709  1.0000
  N   N23       1.0  0.8696189885859814  0.9342940686422497  0.023205455563439625  1.0000
  N   N24       1.0  0.13038101035100558  0.43429406853851615  0.9767945439542548  1.0000
  N   N25       1.0  0.7665247615726948  0.5809881520136443  0.39842230822746855  1.0000
  N   N26       1.0  0.2334752373663509  0.08098815190991081  0.6015776920551617  1.0000
  N   N27       1.0  0.6979105854677566  0.5785235915578588  0.5648117175312097  1.0000
  N   N28       1.0  0.3020894146763957  0.0785235914541253  0.43518828288520234  1.0000
  N   N29       1.0  0.42438905687736334  0.5982648691276586  0.5267103093343415  1.0000
  N   N30       1.0  0.5756109432647304  0.09826486902392503  0.4732896903171349  1.0000
  N   N31       1.0  0.2216075689087438  0.6370475764079925  0.3278668290578837  1.0000
  N   N32       1.0  0.7783924312354087  0.1370475763042589  0.6721331713585286  1.0000
  N   N33       1.0  0.29488397309367587  0.6239365504001022  0.16855564897611558  1.0000
  N   N34       1.0  0.7051160270504767  0.1239365502963687  0.8314443514402967  1.0000
  N   N35       1.0  0.6143088133165717  0.573266354180047  0.12421959993980547  1.0000
  N   N36       1.0  0.385691186825522  0.07326635407631352  0.875780399711671  1.0000
  N   N37       1.0  0.8490544644746169  0.5483015080094601  0.23928499566032574  1.0000
  N   N38       1.0  0.15094553446237005  0.048301507905726515  0.7607150038573687  1.0000
  N   N39       1.0  0.9292390385254163  0.5726315742585364  0.4479466250804031  1.0000
  N   N40       1.0  0.07076096161873617  0.07263157415480283  0.5520533753360091  1.0000
  O   O1        1.0  0.15918239776758925  0.3497291647988421  0.3739410734957774  1.0000
  O   O2        1.0  0.8408176023745045  0.8497291649025757  0.626058926155699  1.0000
  O   O3        1.0  0.24781928595665145  0.34921513126617276  0.22476197225037237  1.0000
  O   O4        1.0  0.7521807141875009  0.8492151313699065  0.7752380281660398  1.0000
  O   O5        1.0  0.3277056394190098  0.056195340786419384  0.1499438731847921  1.0000
  O   O6        1.0  0.6722943607230839  0.5561953408901529  0.8500561264666843  1.0000
  O   O7        1.0  0.27239064810496166  0.902771159651881  0.25101859070573906  1.0000
  O   O8        1.0  0.7276093520391907  0.40277115954814746  0.7489814097106731  1.0000
  O   O9        1.0  0.8205664975803201  0.30377191274133836  0.4330346725728741  1.0000
  O   O10       1.0  0.17943350256177357  0.8037719128450719  0.5669653270786023  1.0000
  O   O11       1.0  0.593988446250416  0.3122807724097955  0.32013499047969834  1.0000
  O   O12       1.0  0.4060115526886297  0.812280772513529  0.6798650098029317  1.0000
  O   O13       1.0  0.6453994681211019  0.8474099691674338  0.2972375920669669  1.0000
  O   O14       1.0  0.3546005320209918  0.34740996906370036  0.7027624075845094  1.0000
  O   O15       1.0  0.8874350031674835  0.8475458631435419  0.39439513269670406  1.0000
  O   O16       1.0  0.11256499697461025  0.3475458630398083  0.6056048669547723  1.0000
  O   O17       1.0  0.665713952146453  0.33056101110922703  0.964865962368774  1.0000
  O   O18       1.0  0.33428604799564077  0.8305610112129606  0.03513403728270235  1.0000
  O   O19       1.0  0.49646290795914644  0.30662720772311985  0.07406407344852081  1.0000
  O   O20       1.0  0.5035370909778405  0.8066272078268534  0.9259359260691736  1.0000
  O   O21       1.0  0.9652157209322385  0.9640294250373924  0.9657755681588075  1.0000
  O   O22       1.0  0.03478427920985526  0.4640294249336589  0.034224431492668794  1.0000
  O   O23       1.0  0.8280015523090034  0.8275254339775497  0.042946776424412865  1.0000
  O   O24       1.0  0.17199844783514898  0.32752543387381633  0.9570532239919993  1.0000
  O   O25       1.0  0.5547416473437898  0.585644034473368  0.6038875036168199  1.0000
  O   O26       1.0  0.44525835279830395  0.08564403436963446  0.3961124960346565  1.0000
  O   O27       1.0  0.17023713256389106  0.6419527897606004  0.2221066502863174  1.0000
  O   O28       1.0  0.8297628675802614  0.14195278965686697  0.7778933501300948  1.0000
  O   O29       1.0  0.7761673121998874  0.5505000853135514  0.13539388720666878  1.0000
  O   O30       1.0  0.2238326867391582  0.05050008520981797  0.8646061130759615  1.0000
