data_image0
_chemical_formula_structural       H32C28N12O16Cl4
_chemical_formula_sum              "H32 C28 N12 O16 Cl4"
_cell_length_a       4.8277345552390925
_cell_length_b       21.79917632229336
_cell_length_c       9.402435029224693
_cell_angle_alpha    90.0
_cell_angle_beta     104.7817999759831
_cell_angle_gamma    90.0

_space_group_name_H-M_alt    "P 1"
_space_group_IT_number       1

loop_
  _space_group_symop_operation_xyz
  'x, y, z'

loop_
  _atom_site_type_symbol
  _atom_site_label
  _atom_site_symmetry_multiplicity
  _atom_site_fract_x
  _atom_site_fract_y
  _atom_site_fract_z
  _atom_site_occupancy
  H   H1        1.0  0.513441432702412  0.35737715888067123  0.6725146119322684  1.0000
  H   H2        1.0  0.5134414330629622  0.6426228410141248  0.1725146125822446  1.0000
  H   H3        1.0  0.013441432973951858  0.8573771588280691  0.6725146124588273  1.0000
  H   H4        1.0  0.013441432801507554  0.1426228410667268  0.17251461200886906  1.0000
  H   H5        1.0  0.02105848588824069  0.33843478078826084  0.9046111350490844  1.0000
  H   H6        1.0  0.0210584857157964  0.6615652191065351  0.40461113459912623  1.0000
  H   H7        1.0  0.521058485616701  0.8384347807356588  0.9046111345225256  1.0000
  H   H8        1.0  0.521058485977251  0.16156521915913716  0.40461113517250186  1.0000
  H   H9        1.0  0.34873102379660065  0.36032260457323784  0.0278717674301983  1.0000
  H   H10       1.0  0.34873102343605056  0.6396773953215582  0.5278717667802222  1.0000
  H   H11       1.0  0.8487310235250609  0.8603226045206358  0.027871766903639503  1.0000
  H   H12       1.0  0.8487310236975051  0.13967739537416013  0.5278717673535976  1.0000
  H   H13       1.0  0.8711077535995648  0.987072860546333  0.39920872633077026  1.0000
  H   H14       1.0  0.8711077532390149  0.012927139348462933  0.899208725680794  1.0000
  H   H15       1.0  0.37110775333811025  0.48707286059893506  0.3992087257573947  1.0000
  H   H16       1.0  0.3711077535105546  0.5129271392958609  0.8992087262073529  1.0000
  H   H17       1.0  0.8668846595116982  0.9541432860804443  0.5707838876142118  1.0000
  H   H18       1.0  0.866884659339254  0.045856713814351774  0.07078388716425368  1.0000
  H   H19       1.0  0.3668846592502436  0.4541432861330462  0.5707838870408363  1.0000
  H   H20       1.0  0.3668846590777993  0.5458567137617498  0.07078388659087811  1.0000
  H   H21       1.0  0.48625406889335543  0.8535027450084229  0.22172392796356857  1.0000
  H   H22       1.0  0.48625406906579977  0.1464972548863731  0.7217239284135267  1.0000
  H   H23       1.0  0.9862540691548103  0.35350274506102486  0.22172392853694417  1.0000
  H   H24       1.0  0.9862540687942599  0.646497255292504  0.7217239278869679  1.0000
  H   H25       1.0  0.16100106058601793  0.9399161356865632  0.24432095071898302  1.0000
  H   H26       1.0  0.16100106075846227  0.06008386466696582  0.7443209511689413  1.0000
  H   H27       1.0  0.6610010603144781  0.43991613573916516  0.2443209501924242  1.0000
  H   H28       1.0  0.6610010604869224  0.5600838646143639  0.7443209506423824  1.0000
  H   H29       1.0  0.37576559983635727  0.7811138502782028  0.6316513202476909  1.0000
  H   H30       1.0  0.3757656001969073  0.2188861496165932  0.13165132089766698  1.0000
  H   H31       1.0  0.8757656000978119  0.2811138503308048  0.6316513208210663  1.0000
  H   H32       1.0  0.8757655999253675  0.7188861495639912  0.13165132037110822  1.0000
  C   C1        1.0  0.2946031957312288  0.3947382402334146  0.8092672089352724  1.0000
  C   C2        1.0  0.2946031960917788  0.6052617601201143  0.30926720958524845  1.0000
  C   C3        1.0  0.7946031959926833  0.8947382401808125  0.8092672095086478  1.0000
  C   C4        1.0  0.794603195820239  0.10526176017271632  0.30926720905868965  1.0000
  C   C5        1.0  0.17287652574351364  0.3765208560474867  0.9369153750659073  1.0000
  C   C6        1.0  0.1728765261040637  0.6234791438473093  0.43691537571588346  1.0000
  C   C7        1.0  0.6728765260049683  0.8765208559948847  0.936915375639283  1.0000
  C   C8        1.0  0.6728765258325239  0.12347914389991124  0.43691537518932466  1.0000
  C   C9        1.0  0.45953982723822334  0.8120521967564722  0.42695520702000417  1.0000
  C   C10       1.0  0.4595398268776734  0.1879478031383237  0.9269552063700282  1.0000
  C   C11       1.0  0.9595398269666837  0.3120521968090743  0.4269552064934455  1.0000
  C   C12       1.0  0.9595398271391279  0.6879478030857217  0.9269552069434036  1.0000
  C   C13       1.0  0.3932783478860166  0.856700781437382  0.3152375817190966  1.0000
  C   C14       1.0  0.39327834752546653  0.14329921845741386  0.8152375810691205  1.0000
  C   C15       1.0  0.893278347614477  0.35670078148998413  0.3152375811925378  1.0000
  C   C16       1.0  0.8932783477869212  0.6432992184048119  0.815237581642496  1.0000
  C   C17       1.0  0.21312019228711682  0.9039887479531533  0.32732396529212693  1.0000
  C   C18       1.0  0.21312019192656678  0.0960112519416427  0.8273239646421507  1.0000
  C   C19       1.0  0.713120192015577  0.4039887480057553  0.3273239647655681  1.0000
  C   C20       1.0  0.7131201921880214  0.5960112518890407  0.8273239652155262  1.0000
  C   C21       1.0  0.10034563210235231  0.9070009149740167  0.45304647160351147  1.0000
  C   C22       1.0  0.10034563227479668  0.09299908537951217  0.9530464720534698  1.0000
  C   C23       1.0  0.6003456323638069  0.40700091456788584  0.45304647217688715  1.0000
  C   C24       1.0  0.6003456320032569  0.5929990853269101  0.9530464715269108  1.0000
  C   C25       1.0  0.3348560471616083  0.8155750197688934  0.5448714417013558  1.0000
  C   C26       1.0  0.33485604698916394  0.1844249801259026  0.044871441251397644  1.0000
  C   C27       1.0  0.8348560468900684  0.3155750198214954  0.544871441174797  1.0000
  C   C28       1.0  0.8348560467176241  0.6844249800733007  0.044871440724838854  1.0000
  N   N1        1.0  0.6610306794862211  0.7642877792112474  0.42328081273764834  1.0000
  N   N2        1.0  0.6610306796586652  0.2357122206835486  0.9232808131876065  1.0000
  N   N3        1.0  0.16103067975776078  0.2642877792638494  0.42328081326420713  1.0000
  N   N4        1.0  0.16103067939721075  0.7357122210896795  0.923280812614231  1.0000
  N   N5        1.0  0.9346511128857953  0.9529668870449552  0.4757452013035135  1.0000
  N   N6        1.0  0.9346511125252452  0.04703311284984075  0.9757452006535374  1.0000
  N   N7        1.0  0.4346511126243406  0.4529668870975572  0.4757452007301379  1.0000
  N   N8        1.0  0.4346511127967849  0.5470331127972388  0.975745201180096  1.0000
  N   N9        1.0  0.1608337636916292  0.8616108091566652  0.5571859069572711  1.0000
  N   N10       1.0  0.1608337635191849  0.13838919073813077  0.05718590650731298  1.0000
  N   N11       1.0  0.6608337634200895  0.3616108092092672  0.5571859064307124  1.0000
  N   N12       1.0  0.6608337637806395  0.6383891906855288  0.05718590708068854  1.0000
  O   O1        1.0  0.29070161771196457  0.4478261203849455  0.760470666897457  1.0000
  O   O2        1.0  0.2907016180725146  0.5521738795098505  0.26047066754743314  1.0000
  O   O3        1.0  0.7907016179734191  0.9478261207910764  0.7604706674708325  1.0000
  O   O4        1.0  0.7907016178009749  0.0521738795624525  0.2604706670208744  1.0000
  O   O5        1.0  0.40225564619984056  0.3469474446273172  0.758962705661132  1.0000
  O   O6        1.0  0.4022556460273963  0.6530525552674787  0.2589627052111738  1.0000
  O   O7        1.0  0.9022556464612951  0.8469474445747152  0.7589627062345077  1.0000
  O   O8        1.0  0.9022556462888508  0.1530525553200808  0.2589627057845494  1.0000
  O   O9        1.0  0.7837051145035812  0.7647319643426874  0.32116135240518484  1.0000
  O   O10       1.0  0.7837051146760255  0.23526803555210865  0.821161352855143  1.0000
  O   O11       1.0  0.28370511477512095  0.26473196439528934  0.3211613529317436  1.0000
  O   O12       1.0  0.2837051144145709  0.7352680359582396  0.8211613522817675  1.0000
  O   O13       1.0  0.7114834439723984  0.725171476035702  0.5235819987517433  1.0000
  O   O14       1.0  0.7114834443329484  0.274828524317827  0.023581999401719365  1.0000
  O   O15       1.0  0.21148344424393806  0.22517147608830393  0.523581999278302  1.0000
  O   O16       1.0  0.21148344407149375  0.774828524265225  0.023581998828343803  1.0000
  Cl  Cl1       1.0  0.9930747715885702  0.43729092645813944  0.0023077772686176568  1.0000
  Cl  Cl2       1.0  0.9930747717610146  0.5627090734366565  0.5023077777185758  1.0000
  Cl  Cl3       1.0  0.4930747718601101  0.9372909268642703  0.0023077777951764533  1.0000
  Cl  Cl4       1.0  0.49307477149956  0.06270907348925858  0.5023077771452004  1.0000
