data_image0
_chemical_formula_structural       H96C84N8O16
_chemical_formula_sum              "H96 C84 N8 O16"
_cell_length_a       15.77137183479564
_cell_length_b       15.550583213173708
_cell_length_c       7.514869783842724
_cell_angle_alpha    90.0
_cell_angle_beta     95.99834416110582
_cell_angle_gamma    90.0

_space_group_name_H-M_alt    "P 1"
_space_group_IT_number       1

loop_
  _space_group_symop_operation_xyz
  'x, y, z'

loop_
  _atom_site_type_symbol
  _atom_site_label
  _atom_site_symmetry_multiplicity
  _atom_site_fract_x
  _atom_site_fract_y
  _atom_site_fract_z
  _atom_site_occupancy
  H   H1        1.0  0.36039811673969213  0.6791631545402685  0.8261639070601016  1.0000
  H   H2        1.0  0.6396018828899989  0.17916315432078184  0.6738360923214778  1.0000
  H   H3        1.0  0.6396018828078844  0.3208368452556422  0.1738360928593931  1.0000
  H   H4        1.0  0.36039811665757754  0.8208368454751289  0.3261639075980169  1.0000
  H   H5        1.0  0.29848326981334683  0.5856895915186189  0.33838110147769246  1.0000
  H   H6        1.0  0.7015167302896359  0.08568959194219485  0.16161889913245772  1.0000
  H   H7        1.0  0.7015167303717507  0.4143104082772919  0.6616188985945425  1.0000
  H   H8        1.0  0.2984832698954613  0.9143104084967786  0.8383811009397771  1.0000
  H   H9        1.0  0.20360837179445773  0.47492017493874705  0.1818188030889996  1.0000
  H   H10       1.0  0.7963916276710042  0.9749201751582338  0.31818119736841044  1.0000
  H   H11       1.0  0.7963916277531188  0.5250798248571638  0.8181811968304952  1.0000
  H   H12       1.0  0.2036083718765723  0.02507982528073968  0.6818188025510843  1.0000
  H   H13       1.0  0.22485095130140345  0.514026652275547  0.6111477632097253  1.0000
  H   H14       1.0  0.7751490489658085  0.014026652056060315  0.8888522363245944  1.0000
  H   H15       1.0  0.7751490488836938  0.4859733481634264  0.3888522368625096  1.0000
  H   H16       1.0  0.2248509512192889  0.9859733477398505  0.11114776374764057  1.0000
  H   H17       1.0  0.4389567638052689  0.715220496076179  0.10643272960859103  1.0000
  H   H18       1.0  0.561043236297714  0.21522049649975497  0.3935672710015592  1.0000
  H   H19       1.0  0.5610432363798284  0.28477950371973176  0.8935672704636438  1.0000
  H   H20       1.0  0.4389567638873834  0.7847795039392185  0.6064327290706757  1.0000
  H   H21       1.0  0.8208314528649477  0.32670669262719754  0.5183800314036094  1.0000
  H   H22       1.0  0.17916854675855123  0.8267066922036216  0.9816199693072443  1.0000
  H   H23       1.0  0.17916854732014956  0.673293307811776  0.4816199686686254  1.0000
  H   H24       1.0  0.8208314527890253  0.1732933075922892  0.018380030612250436  1.0000
  H   H25       1.0  0.8352314802482381  0.1662281082686442  0.512839925229039  1.0000
  H   H26       1.0  0.16476852001897366  0.666228108488131  0.9871600743052806  1.0000
  H   H27       1.0  0.16476851993685915  0.8337718915272666  0.4871600748431959  1.0000
  H   H28       1.0  0.8352314801661237  0.33377189195084256  0.01283992576695424  1.0000
  H   H29       1.0  0.9702370976714508  0.09737086636836005  0.6488388424016758  1.0000
  H   H30       1.0  0.02976290259576104  0.5973708659447841  0.8511611571326438  1.0000
  H   H31       1.0  0.029762902513646494  0.9026291340706134  0.35116115767055905  1.0000
  H   H32       1.0  0.9702370975893363  0.4026291338511267  0.1488388429395911  1.0000
  H   H33       1.0  0.936502144240682  0.45884725750705485  0.8181923257618727  1.0000
  H   H34       1.0  0.06349785538900907  0.9588472577265416  0.6818076736197065  1.0000
  H   H35       1.0  0.06349785530689453  0.541152742288856  0.18180767415762183  1.0000
  H   H36       1.0  0.9365021441585674  0.04115274271243189  0.31819232629978816  1.0000
  H   H37       1.0  0.8914813148563181  0.4678646665699643  0.5915222123668571  1.0000
  H   H38       1.0  0.10851868476718102  0.967864666789451  0.9084777883439966  1.0000
  H   H39       1.0  0.10851868469125849  0.5321353332259464  0.40847778755263753  1.0000
  H   H40       1.0  0.8914813147803956  0.03213533300645975  0.09152221157549814  1.0000
  H   H41       1.0  0.004479268263984619  0.46612626488885567  0.6453237608965857  1.0000
  H   H42       1.0  0.9955207313595145  0.9661262651083424  0.854676239814268  1.0000
  H   H43       1.0  0.9955207312835919  0.533873734907055  0.35467623902290896  1.0000
  H   H44       1.0  0.004479268188062093  0.03387373468756833  0.14532376010522674  1.0000
  H   H45       1.0  0.14219905903202804  0.15082734697776767  0.7078876221914827  1.0000
  H   H46       1.0  0.8578009405914709  0.6508273471972544  0.7921123785193711  1.0000
  H   H47       1.0  0.8578009411530693  0.8491726528181431  0.2921123778807522  1.0000
  H   H48       1.0  0.1421990589561055  0.3491726532417191  0.2078876214001236  1.0000
  H   H49       1.0  0.10711200744640371  0.14059534809908852  0.9239044334090104  1.0000
  H   H50       1.0  0.8928879928146162  0.6405953483185752  0.5760955674545835  1.0000
  H   H51       1.0  0.8928879927386936  0.8594046516968222  0.07609556666322444  1.0000
  H   H52       1.0  0.10711200737048118  0.35940465212039824  0.4239044326176514  1.0000
  H   H53       1.0  0.15347462746930662  0.23896316935894527  0.8614583630007623  1.0000
  H   H54       1.0  0.8465253721541923  0.738963169578432  0.6385416377100914  1.0000
  H   H55       1.0  0.8465253720782698  0.7610368304369656  0.13854163691873242  1.0000
  H   H56       1.0  0.15347462739338408  0.2610368308605414  0.36145836220940325  1.0000
  H   H57       1.0  0.0666624739909278  0.34403119977312707  0.8065417445109994  1.0000
  H   H58       1.0  0.9333375262762841  0.8440311993495512  0.6934582550233204  1.0000
  H   H59       1.0  0.9333375261941695  0.6559688006658463  0.19345825556123555  1.0000
  H   H60       1.0  0.06666247390881325  0.15596880044635963  0.3065417450489146  1.0000
  H   H61       1.0  0.7102344658961384  0.6632876940115044  0.923195944042566  1.0000
  H   H62       1.0  0.28976553373355257  0.16328769443508045  0.5768040553390135  1.0000
  H   H63       1.0  0.289765533651438  0.33671230578440625  0.0768040558769287  1.0000
  H   H64       1.0  0.7102344658140239  0.836712306003893  0.4231959445804812  1.0000
  H   H65       1.0  0.742199007694604  0.8215437443643415  0.9024913376583811  1.0000
  H   H66       1.0  0.25780099256641587  0.32154374414485476  0.5975086632052129  1.0000
  H   H67       1.0  0.2578009924904933  0.17845625607463195  0.09750866241385385  1.0000
  H   H68       1.0  0.7421990076186815  0.6784562556510559  0.402491336867022  1.0000
  H   H69       1.0  0.6318357900045748  0.9275580421820208  0.9704153453339673  1.0000
  H   H70       1.0  0.368164210256445  0.42755804196253394  0.5295846555296265  1.0000
  H   H71       1.0  0.3681642101805225  0.07244195825695277  0.02958465473826754  1.0000
  H   H72       1.0  0.6318357899286523  0.5724419578333768  0.4704153445426083  1.0000
  H   H73       1.0  0.4946946744945258  0.5814547677118685  0.9671994438835728  1.0000
  H   H74       1.0  0.505305325772686  0.08145476749238183  0.5328005556507468  1.0000
  H   H75       1.0  0.5053053256905715  0.4185452327271049  0.03280055618866212  1.0000
  H   H76       1.0  0.4946946744124112  0.9185452323035289  0.46719944442148803  1.0000
  H   H77       1.0  0.5675589030439542  0.5755908050070647  0.16213826084070787  1.0000
  H   H78       1.0  0.43244109705902867  0.07559080478757793  0.3378617397694423  1.0000
  H   H79       1.0  0.43244109714114315  0.4244091954319088  0.8378617392315271  1.0000
  H   H80       1.0  0.5675589031260687  0.9244091950083329  0.6621382603027925  1.0000
  H   H81       1.0  0.6033160837057884  0.5507449297943146  0.9521629605753499  1.0000
  H   H82       1.0  0.39668391655523155  0.05074492957482785  0.5478370402882441  1.0000
  H   H83       1.0  0.396683916479309  0.4492550706446589  0.04783703949688501  1.0000
  H   H84       1.0  0.6033160836298659  0.9492550702210829  0.45216295978399085  1.0000
  H   H85       1.0  0.41166307393836266  0.8542577630623048  0.07422308728712873  1.0000
  H   H86       1.0  0.5883369261646201  0.35425776348588084  0.42577691332302137  1.0000
  H   H87       1.0  0.5883369262467347  0.14574223673360587  0.9257769127851062  1.0000
  H   H88       1.0  0.4116630733829564  0.6457422369530926  0.5742230865964733  1.0000
  H   H89       1.0  0.4533850586716842  0.9302413537612707  0.9322726036557828  1.0000
  H   H90       1.0  0.5466149409580068  0.4302413541848467  0.5677273957257967  1.0000
  H   H91       1.0  0.5466149408758922  0.06975864603464003  0.06772739626371192  1.0000
  H   H92       1.0  0.4533850585895697  0.5697586462541268  0.43227260419369806  1.0000
  H   H93       1.0  0.4869781209383777  0.9320951337516944  0.1649125507197901  1.0000
  H   H94       1.0  0.513021879170797  0.4320951335322077  0.33508744856108574  1.0000
  H   H95       1.0  0.5130218792467195  0.06790486668727905  0.8350874493524448  1.0000
  H   H96       1.0  0.4869781210143003  0.5679048662637031  0.6649125515111491  1.0000
  C   C1        1.0  0.2292853218434485  0.5118490304117372  0.9173455094502233  1.0000
  C   C2        1.0  0.7707146777862425  0.01184903083531326  0.582654489931356  1.0000
  C   C3        1.0  0.7707146777041279  0.4881509693841735  0.08265449046927129  1.0000
  C   C4        1.0  0.22928532176133393  0.9881509696036602  0.4173455099881387  1.0000
  C   C5        1.0  0.2754984286429757  0.569762434536482  0.8169351998659273  1.0000
  C   C6        1.0  0.7245015716180442  0.06976243431699528  0.6830648009976665  1.0000
  C   C7        1.0  0.7245015715421216  0.43023756590249146  0.18306480020630753  1.0000
  C   C8        1.0  0.2754984285670532  0.9302375654789156  0.31693519907456835  1.0000
  C   C9        1.0  0.3285385904503437  0.6322530978562195  0.9038416535764612  1.0000
  C   C10       1.0  0.6714614098168682  0.13225309763673276  0.5961583459578583  1.0000
  C   C11       1.0  0.6714614097347535  0.36774690258275394  0.09615834649577362  1.0000
  C   C12       1.0  0.32853859036822913  0.8677469021591779  0.40384165411437656  1.0000
  C   C13       1.0  0.3378395159349611  0.6371483271191009  0.09160210105944211  1.0000
  C   C14       1.0  0.6621604835305008  0.13714832689961418  0.4083978993979679  1.0000
  C   C15       1.0  0.6621604836126153  0.36285167267680984  0.9083978988600526  1.0000
  C   C16       1.0  0.3378395160170757  0.8628516728962966  0.5916021005215268  1.0000
  C   C17       1.0  0.29130684431977544  0.5806882916359165  0.19305534650514988  1.0000
  C   C18       1.0  0.7086931551456865  0.08068829205949242  0.3069446539522601  1.0000
  C   C19       1.0  0.708693155227801  0.41931170815999436  0.8069446534143447  1.0000
  C   C20       1.0  0.29130684440189  0.9193117083794811  0.6930553459672346  1.0000
  C   C21       1.0  0.23874368450762828  0.5194780593924315  0.10507774406519892  1.0000
  C   C22       1.0  0.7612563156015466  0.019478059172944828  0.3949222552156769  1.0000
  C   C23       1.0  0.7612563156774691  0.48052194040347923  0.8949222560070359  1.0000
  C   C24       1.0  0.23874368458355077  0.980521940622966  0.605077744856558  1.0000
  C   C25       1.0  0.17171978029151566  0.44752059164600944  0.8256493345618702  1.0000
  C   C26       1.0  0.8282802199756962  0.9475205912224335  0.6743506649724494  1.0000
  C   C27       1.0  0.8282802198935816  0.552479408792964  0.17435066551036477  1.0000
  C   C28       1.0  0.17171978020940112  0.05247940857347728  0.32564933509978544  1.0000
  C   C29       1.0  0.9442454676976719  0.34422738469803815  0.6638146808688894  1.0000
  C   C30       1.0  0.05575453256954002  0.8442273842744622  0.8361853186654303  1.0000
  C   C31       1.0  0.055754532487425484  0.6557726157409353  0.33618531920334555  1.0000
  C   C32       1.0  0.9442454676155572  0.15577261552144855  0.1638146814068046  1.0000
  C   C33       1.0  0.8779943333603414  0.2949095218573506  0.5805479765235224  1.0000
  C   C34       1.0  0.1220056669068705  0.7949095214337746  0.9194520230107971  1.0000
  C   C35       1.0  0.12200566682475596  0.705090478581623  0.4194520235487124  1.0000
  C   C36       1.0  0.8779943332782268  0.20509047836213617  0.08054797706143775  1.0000
  C   C37       1.0  0.8868316711328449  0.20550890318330223  0.5771731467924097  1.0000
  C   C38       1.0  0.11316832913436696  0.7055089027597262  0.9228268527419098  1.0000
  C   C39       1.0  0.11316832905225242  0.7944910972556712  0.4228268532798252  1.0000
  C   C40       1.0  0.8868316710507304  0.2944910970361845  0.07717314733032496  1.0000
  C   C41       1.0  0.9615860857791299  0.16677693913132013  0.6536737442186902  1.0000
  C   C42       1.0  0.0384139138505612  0.6667769393508068  0.8463262551628894  1.0000
  C   C43       1.0  0.03841391440596748  0.8332230606645906  0.34632625585354476  1.0000
  C   C44       1.0  0.9615860856970152  0.3332230610881666  0.15367374475660536  1.0000
  C   C45       1.0  0.027589669571883035  0.21797813455179096  0.7341333295029504  1.0000
  C   C46       1.0  0.9724103300578081  0.7179781347712777  0.765866669878629  1.0000
  C   C47       1.0  0.9724103306132142  0.7820218652441198  0.26586667056928437  1.0000
  C   C48       1.0  0.02758966948976849  0.28202186502463306  0.23413333004086578  1.0000
  C   C49       1.0  0.9436671074576574  0.43976060937744915  0.6796052257675084  1.0000
  C   C50       1.0  0.056332892172033695  0.9397606089538731  0.8203947736140711  1.0000
  C   C51       1.0  0.05633289208991915  0.5602393910615243  0.3203947741519863  1.0000
  C   C52       1.0  0.9436671073755428  0.06023939084203762  0.1796052263054236  1.0000
  C   C53       1.0  0.11223447781417131  0.18546679056748913  0.8125119032974633  1.0000
  C   C54       1.0  0.8877655224530405  0.6854667907869758  0.6874880962368565  1.0000
  C   C55       1.0  0.887765522370926  0.8145332092284217  0.18748809677477177  1.0000
  C   C56       1.0  0.11223447773205676  0.3145332090089349  0.31251190383537847  1.0000
  C   C57       1.0  0.5840284209698469  0.6858472131749278  0.9989046813562699  1.0000
  C   C58       1.0  0.4159715786536522  0.1858472135985037  0.5010953193545837  1.0000
  C   C59       1.0  0.41597157921525046  0.31415278662098306  0.0010953187159650159  1.0000
  C   C60       1.0  0.5840284208939243  0.8141527868404698  0.49890468056491083  1.0000
  C   C61       1.0  0.6633573714617286  0.711571179570035  0.9506957886218388  1.0000
  C   C62       1.0  0.3366426288054833  0.211571179993611  0.5493042109124808  1.0000
  C   C63       1.0  0.3366426287233687  0.28842882022587574  0.049304211450396165  1.0000
  C   C64       1.0  0.6633573713796141  0.7884288204453626  0.45069578915975406  1.0000
  C   C65       1.0  0.6810556230354472  0.7991540792805879  0.9398441647378858  1.0000
  C   C66       1.0  0.3189443772317646  0.29915407906110114  0.5601558347964337  1.0000
  C   C67       1.0  0.31894437714965  0.20084592051532285  0.06015583533434898  1.0000
  C   C68       1.0  0.6810556229533328  0.7008459207348096  0.4398441652758012  1.0000
  C   C69       1.0  0.6194268433040018  0.8587219596167589  0.9767927199686421  1.0000
  C   C70       1.0  0.38057315631949734  0.35872195939727214  0.5232072807422116  1.0000
  C   C71       1.0  0.38057315624357474  0.1412780408222146  0.023207279950852554  1.0000
  C   C72       1.0  0.6194268438656  0.6412780403986387  0.4767927193300233  1.0000
  C   C73       1.0  0.5401971798596811  0.8291496764621037  0.019520291946075897  1.0000
  C   C74       1.0  0.45980281961197284  0.3291496768856797  0.4804797071820598  1.0000
  C   C75       1.0  0.4598028196878954  0.17085032333380704  0.9804797079734189  1.0000
  C   C76       1.0  0.5401971799356036  0.6708503235532938  0.5195202927374348  1.0000
  C   C77       1.0  0.5612632976082307  0.593148322063319  0.019481902940107758  1.0000
  C   C78       1.0  0.4387367024947521  0.09314832184383229  0.4805180976700424  1.0000
  C   C79       1.0  0.43873670193934583  0.40685167837565445  0.980518096979387  1.0000
  C   C80       1.0  0.5612632976903452  0.9068516779520785  0.5194819024021925  1.0000
  C   C81       1.0  0.4692552755020144  0.8895687763196612  0.05037458736077577  1.0000
  C   C82       1.0  0.5307447246009684  0.3895687761001745  0.44962541324937444  1.0000
  C   C83       1.0  0.5307447246830829  0.11043122411931222  0.9496254127114591  1.0000
  C   C84       1.0  0.46925527558412894  0.6104312236957363  0.5503745868228606  1.0000
  N   N1        1.0  0.015582785385545382  0.3038846283267828  0.7368906048329568  1.0000
  N   N2        1.0  0.9844172142441456  0.8038846279032069  0.7631093945486226  1.0000
  N   N3        1.0  0.9844172141620311  0.6961153721121905  0.2631093950865379  1.0000
  N   N4        1.0  0.01558278530343083  0.19611537189270392  0.2368906053708721  1.0000
  N   N5        1.0  0.5241896203587975  0.7443544792708541  0.030919423973967464  1.0000
  N   N6        1.0  0.47581037974418533  0.2443544796944301  0.4690805766361827  1.0000
  N   N7        1.0  0.47581037918877905  0.2556455205250566  0.9690805759455273  1.0000
  N   N8        1.0  0.5241896204409119  0.7556455207445434  0.5309194234360521  1.0000
  O   O1        1.0  0.1293066883864712  0.39741448762928566  0.9187184872381845  1.0000
  O   O2        1.0  0.8706933118807407  0.8974144878487724  0.581281512296135  1.0000
  O   O3        1.0  0.8706933117986261  0.6025855121666251  0.0812815128340503  1.0000
  O   O4        1.0  0.12930668830435665  0.10258551259020103  0.4187184877760999  1.0000
  O   O5        1.0  0.16509341063129226  0.44449152325968067  0.6529583563308045  1.0000
  O   O6        1.0  0.8349065896297276  0.9444915228361046  0.8470416445327893  1.0000
  O   O7        1.0  0.8349065895538051  0.55550847653623  0.3470416437414305  1.0000
  O   O8        1.0  0.16509341055536972  0.05550847695980609  0.1529583555394454  1.0000
  O   O9        1.0  0.2672579344421794  0.5651119710131116  0.6360807092585103  1.0000
  O   O10       1.0  0.7327420658250324  0.06511197143668761  0.8639192902758092  1.0000
  O   O11       1.0  0.7327420657429179  0.43488802878279914  0.36391929081372454  1.0000
  O   O12       1.0  0.2672579343600648  0.9348880290022858  0.13608070979642564  1.0000
  O   O13       1.0  0.39003960108305785  0.694294273854216  0.18066435016883853  1.0000
  O   O14       1.0  0.6099603983824042  0.194294274277792  0.31933565028857147  1.0000
  O   O15       1.0  0.6099603984645187  0.30570572594169476  0.8193356497506562  1.0000
  O   O16       1.0  0.3900396011651724  0.8057057261611815  0.6806643496309233  1.0000
