data_image0
_chemical_formula_structural       H60C76N4O4F8I4
_chemical_formula_sum              "H60 C76 N4 O4 F8 I4"
_cell_length_a       13.19975095710043
_cell_length_b       7.5972253708373545
_cell_length_c       16.942490467086387
_cell_angle_alpha    90.0
_cell_angle_beta     103.66275226788287
_cell_angle_gamma    90.0

_space_group_name_H-M_alt    "P 1"
_space_group_IT_number       1

loop_
  _space_group_symop_operation_xyz
  'x, y, z'

loop_
  _atom_site_type_symbol
  _atom_site_label
  _atom_site_symmetry_multiplicity
  _atom_site_fract_x
  _atom_site_fract_y
  _atom_site_fract_z
  _atom_site_occupancy
  H   H1        1.0  0.8018109262957975  0.97915745510918  0.5289493481563372  1.0000
  H   H2        1.0  0.19818907423215945  0.47915745450615416  0.9710506518567141  1.0000
  H   H3        1.0  0.19818907386733942  0.020842544780601577  0.47105065180882255  1.0000
  H   H4        1.0  0.8018109259309774  0.5208425453836273  0.02894934810844557  1.0000
  H   H5        1.0  0.9927654642641673  0.9892271458536007  0.5703851911881116  1.0000
  H   H6        1.0  0.00723453550712926  0.489227145250575  0.9296148088279752  1.0000
  H   H7        1.0  0.0072345351423091665  0.01077285403618075  0.42961480878008357  1.0000
  H   H8        1.0  0.9927654646560076  0.5107728546392065  0.07038519113718458  1.0000
  H   H9        1.0  0.9727769168764206  0.41022192285662035  0.7371721111637093  1.0000
  H   H10       1.0  0.027223082894875978  0.910221922143376  0.7628278888523775  1.0000
  H   H11       1.0  0.02722308253005587  0.5897780770331612  0.2628278888044858  1.0000
  H   H12       1.0  0.9727769172682609  0.08977807774640545  0.23717211111278225  1.0000
  H   H13       1.0  0.1455369605635149  0.016026418074600333  0.5975961848974989  1.0000
  H   H14       1.0  0.8544630392077817  0.5160264186776261  0.9024038151185879  1.0000
  H   H15       1.0  0.854463039599622  0.9839735818151811  0.4024038150676608  1.0000
  H   H16       1.0  0.14553696019869486  0.4839735812121554  0.09759618484960726  1.0000
  H   H17       1.0  0.632581102718249  0.2613733386957741  0.6888038739757661  1.0000
  H   H18       1.0  0.36741889780970793  0.7613733392987998  0.8111961260372854  1.0000
  H   H19       1.0  0.3674188974448879  0.7386266611940073  0.3111961259893937  1.0000
  H   H20       1.0  0.6325811023534289  0.23862666190725165  0.1888038739278744  1.0000
  H   H21       1.0  0.784531274163528  0.39926073295699493  0.6962762652133143  1.0000
  H   H22       1.0  0.21546872636442896  0.8992607335600207  0.8037237347997371  1.0000
  H   H23       1.0  0.21546872599960892  0.6007392669327866  0.3037237347518455  1.0000
  H   H24       1.0  0.7845312737987079  0.10073926764603082  0.1962762651654226  1.0000
  H   H25       1.0  0.11907566465301087  0.37230230405659936  0.7912165431688583  1.0000
  H   H26       1.0  0.8809243351182858  0.8723023033433551  0.7087834568472287  1.0000
  H   H27       1.0  0.880924335510126  0.6276976958331821  0.20878345679630164  1.0000
  H   H28       1.0  0.11907566504485106  0.12769769654642635  0.2912165431179311  1.0000
  H   H29       1.0  0.6224820496926445  0.4142368531122221  0.6067290812274346  1.0000
  H   H30       1.0  0.3775179500786521  0.9142368537152478  0.8932709187886522  1.0000
  H   H31       1.0  0.37751794971383196  0.5857631467775595  0.39327091874076053  1.0000
  H   H32       1.0  0.6224820500844849  0.08576314617453368  0.10672908117650758  1.0000
  H   H33       1.0  0.4894277923997035  0.08378366297297869  0.6066129096968742  1.0000
  H   H34       1.0  0.5105722081282534  0.5837836622597343  0.8933870903161775  1.0000
  H   H35       1.0  0.5105722077634334  0.9162163369168028  0.39338709026828567  1.0000
  H   H36       1.0  0.4894277920348834  0.41621633763004706  0.1066129096489824  1.0000
  H   H37       1.0  0.30795636907278773  0.36718935451200546  0.8417704432181785  1.0000
  H   H38       1.0  0.6920436306985089  0.8671893551150313  0.6582295567979083  1.0000
  H   H39       1.0  0.6920436303336888  0.632810645377776  0.15822955675001665  1.0000
  H   H40       1.0  0.3079563696525703  0.13281064477475021  0.34177044377466415  1.0000
  H   H41       1.0  0.333689713413529  0.00536939053520587  0.6507875013447378  1.0000
  H   H42       1.0  0.6663102871144281  0.5053693911382316  0.8492124986683137  1.0000
  H   H43       1.0  0.666310286749608  0.9946306093545756  0.34921249862042203  1.0000
  H   H44       1.0  0.3336897130487088  0.4946306087515499  0.1507875012968461  1.0000
  H   H45       1.0  0.4495412665274412  0.3015111567958564  0.6200684084473891  1.0000
  H   H46       1.0  0.5504587332438555  0.8015111560826121  0.8799315915686978  1.0000
  H   H47       1.0  0.5504587336356958  0.698488843093925  0.37993159151777073  1.0000
  H   H48       1.0  0.44954126616262113  0.19848884380716936  0.1200684083994974  1.0000
  H   H49       1.0  0.37903324805255306  0.19975687911345094  0.4763371382664332  1.0000
  H   H50       1.0  0.6209667517457638  0.6997568797164767  0.023662861650834918  1.0000
  H   H51       1.0  0.6209667521105838  0.8002431207763305  0.5236628616987267  1.0000
  H   H52       1.0  0.3790332484173732  0.3002431201733048  0.9763371383143249  1.0000
  H   H53       1.0  0.5081850591497576  0.1680373580729109  0.46467736483047034  1.0000
  H   H54       1.0  0.4918149406485592  0.6680373573596666  0.03532263508679785  1.0000
  H   H55       1.0  0.491814940256719  0.8319626418168706  0.5353226351377249  1.0000
  H   H56       1.0  0.5081850595145777  0.3319626425301148  0.964677364878362  1.0000
  H   H57       1.0  0.46375084275163175  0.3818932634454965  0.47941295215590385  1.0000
  H   H58       1.0  0.5362491570466851  0.8818932627322522  0.02058704776136428  1.0000
  H   H59       1.0  0.5362491566548447  0.6181067364442849  0.5205870478122914  1.0000
  H   H60       1.0  0.46375084311645187  0.11810673715752923  0.9794129522037955  1.0000
  C   C1        1.0  0.8955768608699538  0.46298293236130744  0.45762169423620863  1.0000
  C   C2        1.0  0.1044231389283629  0.9629829316480631  0.042378305681059464  1.0000
  C   C3        1.0  0.10442313929318302  0.537017067528474  0.5423783057289512  1.0000
  C   C4        1.0  0.8955768612347739  0.037017068241718305  0.9576216942841004  1.0000
  C   C5        1.0  0.019432525845505432  0.6056119919334297  0.5678147337840969  1.0000
  C   C6        1.0  0.9805674739257912  0.10561199264667402  0.93218526623199  1.0000
  C   C7        1.0  0.9805674743176316  0.39438800795635176  0.432185266181063  1.0000
  C   C8        1.0  0.019432526237345663  0.8943880072431075  0.06781473373316975  1.0000
  C   C9        1.0  0.9170762352602113  0.570895861092766  0.5261022614206169  1.0000
  C   C10       1.0  0.0829237645110854  0.07089586180601024  0.97389773859547  1.0000
  C   C11       1.0  0.08292376490292562  0.42910413879701553  0.47389773854454287  1.0000
  C   C12       1.0  0.9170762356520515  0.9291041380837712  0.026102261369689874  1.0000
  C   C13       1.0  0.11495753894847859  0.19703196982229507  0.6888407943933798  1.0000
  C   C14       1.0  0.8850424608228181  0.6970319704253208  0.8111592056227073  1.0000
  C   C15       1.0  0.8850424612146583  0.8029680300674864  0.3111592055717801  1.0000
  C   C16       1.0  0.11495753934031881  0.3029680294644607  0.18884079434245268  1.0000
  C   C17       1.0  0.9485708683267414  0.0816805899140523  0.5979717676699091  1.0000
  C   C18       1.0  0.051429131444555125  0.581680590517078  0.9020282323461777  1.0000
  C   C19       1.0  0.05142913183639535  0.9183194099757293  0.40202823229525064  1.0000
  C   C20       1.0  0.9485708679619214  0.41831940937270345  0.0979717676220175  1.0000
  C   C21       1.0  0.8407715344003045  0.07456335469189379  0.573932442707117  1.0000
  C   C22       1.0  0.15922846537099217  0.5745633539786495  0.92606755730897  1.0000
  C   C23       1.0  0.15922846500617208  0.9254366451978877  0.4260675572610783  1.0000
  C   C24       1.0  0.8407715347921447  0.42543664591113195  0.07393244265618983  1.0000
  C   C25       1.0  0.8292847073902505  0.30851721458694353  0.6683641887521118  1.0000
  C   C26       1.0  0.1707152931377065  0.8085172151899692  0.8316358112609398  1.0000
  C   C27       1.0  0.17071529277288638  0.691482785302838  0.33163581121304797  1.0000
  C   C28       1.0  0.8292847070254304  0.19148278469981217  0.16836418870422015  1.0000
  C   C29       1.0  0.0005944719771802687  0.19887346975379674  0.658816174884669  1.0000
  C   C30       1.0  0.9994055277941164  0.6988734703568225  0.8411838251314179  1.0000
  C   C31       1.0  0.9994055281859565  0.8011265301359848  0.34118382508049083  1.0000
  C   C32       1.0  0.000594471612360176  0.301126529532959  0.1588161748367773  1.0000
  C   C33       1.0  0.179287655438754  0.09472312388709395  0.6509932321725189  1.0000
  C   C34       1.0  0.8207123443325426  0.5947231244901197  0.8490067678435679  1.0000
  C   C35       1.0  0.8207123447243829  0.9052768760026875  0.34900676779264084  1.0000
  C   C36       1.0  0.17928765507393393  0.4052768753996618  0.1509932321246273  1.0000
  C   C37       1.0  0.28648788232411004  0.08790489519549324  0.6805992414598342  1.0000
  C   C38       1.0  0.7135121182038469  0.587904895798519  0.8194007585532173  1.0000
  C   C39       1.0  0.7135121178390268  0.9120951046942882  0.3194007585053256  1.0000
  C   C40       1.0  0.28648788195929  0.4120951040912625  0.1805992414119425  1.0000
  C   C41       1.0  0.3341038320669886  0.1863286832892752  0.7498193823754324  1.0000
  C   C42       1.0  0.665896167704308  0.686328682576031  0.7501806176406545  1.0000
  C   C43       1.0  0.6658961673394879  0.8136713166005063  0.2501806175927628  1.0000
  C   C44       1.0  0.33410383245882885  0.31367131731375053  0.24981938232450537  1.0000
  C   C45       1.0  0.7798359975674022  0.18604737400915256  0.61005954356492  1.0000
  C   C46       1.0  0.22016400220389448  0.6860473732959083  0.8899404564511669  1.0000
  C   C47       1.0  0.2201640025957347  0.8139526258806289  0.3899404564002399  1.0000
  C   C48       1.0  0.779835997202582  0.3139526265938732  0.11005954351702826  1.0000
  C   C49       1.0  0.937561337931135  0.31354333901212844  0.6916605571482732  1.0000
  C   C50       1.0  0.06243866184016158  0.8135433382988841  0.8083394428678136  1.0000
  C   C51       1.0  0.06243866223200181  0.6864566621939231  0.3083394428168865  1.0000
  C   C52       1.0  0.9375613375663149  0.1864566615908973  0.19166055710038157  1.0000
  C   C53       1.0  0.16451406061689375  0.29352171235565416  0.758472215118018  1.0000
  C   C54       1.0  0.8354859399110631  0.7935217129586799  0.7415277848950333  1.0000
  C   C55       1.0  0.8354859395462432  0.7064782875341273  0.2415277848471417  1.0000
  C   C56       1.0  0.164514060440016  0.20647828693110157  0.25847221567753903  1.0000
  C   C57       1.0  0.4436600487333757  0.1813273323821595  0.7806620422437651  1.0000
  C   C58       1.0  0.5563399508499786  0.6813273316689152  0.7193379571649091  1.0000
  C   C59       1.0  0.5563399514297611  0.818672667507622  0.21933795772139467  1.0000
  C   C60       1.0  0.443660048556498  0.31867266822086626  0.2806620428032861  1.0000
  C   C61       1.0  0.2716969830003109  0.28996002125407533  0.7884357625919014  1.0000
  C   C62       1.0  0.7283030167709856  0.789960020540831  0.7115642374241855  1.0000
  C   C63       1.0  0.728303017162826  0.7100399786357062  0.21156423737325844  1.0000
  C   C64       1.0  0.2716969826354908  0.21003997934895038  0.28843576254400966  1.0000
  C   C65       1.0  0.6100637572922969  0.276208812766695  0.6222522206640622  1.0000
  C   C66       1.0  0.38993624323566  0.7762088120534507  0.8777477793489893  1.0000
  C   C67       1.0  0.38993624287084  0.7237911884393565  0.37774777930109765  1.0000
  C   C68       1.0  0.6100637569274768  0.22379118783633076  0.1222522206161705  1.0000
  C   C69       1.0  0.4977871255371984  0.2215667467838288  0.5889704765478897  1.0000
  C   C70       1.0  0.5022128749907586  0.7215667460705846  0.9110295234651618  1.0000
  C   C71       1.0  0.5022128746259386  0.7784332531059527  0.4110295234172701  1.0000
  C   C72       1.0  0.4977871251723782  0.2784332538191969  0.08897047649999802  1.0000
  C   C73       1.0  0.4601115406300311  0.24354059010836873  0.49722725629377146  1.0000
  C   C74       1.0  0.5398884599249459  0.7435405893951245  0.00277274362046126  1.0000
  C   C75       1.0  0.5398884595331058  0.7564594110976828  0.5027727436713884  1.0000
  C   C76       1.0  0.4601115402381909  0.256459410494657  0.9972272563446987  1.0000
  N   N1        1.0  0.5339507007800478  0.17806805431795342  0.806605353361243  1.0000
  N   N2        1.0  0.4660492989912488  0.6780680536047091  0.6933946466548438  1.0000
  N   N3        1.0  0.46604929938308903  0.8219319468880981  0.19339464660391686  1.0000
  N   N4        1.0  0.5339507004152277  0.3219319462850723  0.30660535331335126  1.0000
  O   O1        1.0  0.6749471017902607  0.16389253565907624  0.5859846319789553  1.0000
  O   O2        1.0  0.3250528979810358  0.663892536262102  0.9140153680371315  1.0000
  O   O3        1.0  0.3250528983728761  0.8361074642307051  0.4140153679862045  1.0000
  O   O4        1.0  0.6749471021821011  0.3361074649439495  0.0859846319280283  1.0000
  F   F1        1.0  0.03567295683820383  0.7067563759015082  0.6355441213345169  1.0000
  F   F2        1.0  0.9643270436897532  0.20675637529848237  0.8644558786785347  1.0000
  F   F3        1.0  0.9643270435128753  0.29324362398827336  0.3644558792380556  1.0000
  F   F4        1.0  0.03567295647338373  0.793243624591299  0.13554412128662519  1.0000
  F   F5        1.0  0.8381850867066952  0.6436153834226805  0.5535673423926304  1.0000
  F   F6        1.0  0.16181491306460133  0.14361538413592473  0.9464326576234564  1.0000
  F   F7        1.0  0.1618149126997812  0.356384616467101  0.4464326575755647  1.0000
  F   F8        1.0  0.8381850870985355  0.8563846157538567  0.05356734234170341  1.0000
  I   I1        1.0  0.7424364988833401  0.4039961788920462  0.3958999382368164  1.0000
  I   I2        1.0  0.2575635009149767  0.9039961794950719  0.10410006168045173  1.0000
  I   I3        1.0  0.25756350127979677  0.5960038209977353  0.6041000617283434  1.0000
  I   I4        1.0  0.7424364992481604  0.09600382039470955  0.8958999382847082  1.0000
