data_image0
_chemical_formula_structural       H58C52N2O2F4I2
_chemical_formula_sum              "H58 C52 N2 O2 F4 I2"
_cell_length_a       7.521024600725959
_cell_length_b       11.458954310529007
_cell_length_c       14.69218369914818
_cell_angle_alpha    67.93792889630056
_cell_angle_beta     76.5610632184796
_cell_angle_gamma    88.7465538001613

_space_group_name_H-M_alt    "P 1"
_space_group_IT_number       1

loop_
  _space_group_symop_operation_xyz
  'x, y, z'

loop_
  _atom_site_type_symbol
  _atom_site_label
  _atom_site_symmetry_multiplicity
  _atom_site_fract_x
  _atom_site_fract_y
  _atom_site_fract_z
  _atom_site_occupancy
  H   H1        1.0  0.7413070761186629  0.4471280164960098  0.44887329403614046  1.0000
  H   H2        1.0  0.25869292398658805  0.5528719835905336  0.5511267057046693  1.0000
  H   H3        1.0  0.6335802581355562  0.5020105979197625  0.5978570706149091  1.0000
  H   H4        1.0  0.36641974196969473  0.49798940216678084  0.4021429291259006  1.0000
  H   H5        1.0  0.40085792007873905  0.1199760986118443  0.7731612808652626  1.0000
  H   H6        1.0  0.5991420800265118  0.8800239014746991  0.22683871887554713  1.0000
  H   H7        1.0  0.5078037284004907  0.06468671035245761  0.624736336454599  1.0000
  H   H8        1.0  0.49219627170476016  0.9353132897340857  0.3752636632862108  1.0000
  H   H9        1.0  0.4101680918209007  0.5453045685063816  0.7032620871747232  1.0000
  H   H10       1.0  0.5898319082843502  0.4546954315801618  0.29673791256608656  1.0000
  H   H11       1.0  0.29798014187548044  0.5979082059418765  0.8523987066414456  1.0000
  H   H12       1.0  0.7020198582297704  0.40209179414466695  0.14760129309936404  1.0000
  H   H13       1.0  0.34924207378751104  0.21439142962310498  0.04572427783791355  1.0000
  H   H14       1.0  0.6507579263177399  0.7856085704634385  0.9542757219028961  1.0000
  H   H15       1.0  0.4635632152564657  0.16091048287491333  0.8949021074895446  1.0000
  H   H16       1.0  0.5364367848487853  0.8390895172116302  0.10509789225126502  1.0000
  H   H17       1.0  0.0936444803444406  0.5803102392774477  0.0046020886558616044  1.0000
  H   H18       1.0  0.9063555194213508  0.4196897604567624  0.9953979118418088  1.0000
  H   H19       1.0  0.3224465073434295  0.6152057178546526  0.007242349427929433  1.0000
  H   H20       1.0  0.6775534927618213  0.3847942822318907  0.9927576503128802  1.0000
  H   H21       1.0  0.24449401485260702  0.48905829322489414  0.1945605193051056  1.0000
  H   H22       1.0  0.7555059852526439  0.5109417068616493  0.8054394804357041  1.0000
  H   H23       1.0  0.01701255223682336  0.459636909179688  0.1913003542750152  1.0000
  H   H24       1.0  0.9829874478684277  0.5403630909068554  0.8086996454657945  1.0000
  H   H25       1.0  0.2062486780429303  0.7172311271731465  0.1442269520543732  1.0000
  H   H26       1.0  0.7937513217228611  0.28276887256106376  0.8557730484432973  1.0000
  H   H27       1.0  0.9823702720036612  0.6973795412662418  0.13028575552960397  1.0000
  H   H28       1.0  0.01762972810158985  0.3026204588203015  0.8697142442112058  1.0000
  H   H29       1.0  0.8710913149327777  0.5696737772220186  0.30828096061907095  1.0000
  H   H30       1.0  0.12890868517247311  0.4303262228645247  0.6917190391217388  1.0000
  H   H31       1.0  0.09344616557768208  0.556884654889144  0.32903428180073896  1.0000
  H   H32       1.0  0.9065538341881093  0.44311534484506615  0.6709657186969314  1.0000
  H   H33       1.0  0.9057532232848967  0.8053448173819114  0.2684690885583678  1.0000
  H   H34       1.0  0.0942467768203542  0.1946551827046319  0.7315309111824418  1.0000
  H   H35       1.0  0.12156715781669758  0.7844364585116761  0.29755383153205905  1.0000
  H   H36       1.0  0.8784328422885532  0.21556354157486748  0.7024461682087505  1.0000
  H   H37       1.0  0.7514676482126167  0.6606319117275098  0.44069946173572805  1.0000
  H   H38       1.0  0.24853235189263426  0.3393680883590336  0.5593005380050816  1.0000
  H   H39       1.0  0.9635481149181623  0.6225732255955992  0.47212415801004215  1.0000
  H   H40       1.0  0.03645188518708876  0.3774267744909442  0.5278758417307675  1.0000
  H   H41       1.0  0.8103890710203763  0.8837400720151667  0.42038735938154054  1.0000
  H   H42       1.0  0.18961092905066046  0.1162599289472819  0.5796126403528234  1.0000
  H   H43       1.0  0.02470333893333995  0.8493122651107191  0.4482051956391583  1.0000
  H   H44       1.0  0.9752966608324515  0.15068773462349103  0.5517948048585122  1.0000
  H   H45       1.0  0.6561216901787604  0.7214171713942519  0.5922365122925923  1.0000
  H   H46       1.0  0.3438783099264906  0.27858282869229156  0.4077634874482174  1.0000
  H   H47       1.0  0.8716573779239403  0.6907070874977064  0.6205436072867252  1.0000
  H   H48       1.0  0.12834262218131062  0.3092929125888369  0.3794563924540845  1.0000
  H   H49       1.0  0.7103182701116895  0.9486748441317935  0.5679028217073018  1.0000
  H   H50       1.0  0.28968172999356134  0.05132515595474978  0.43209717803350794  1.0000
  H   H51       1.0  0.9189741556690462  0.9131118207942646  0.6035689247345588  1.0000
  H   H52       1.0  0.08102584409674507  0.08688817893994555  0.3964310757631117  1.0000
  H   H53       1.0  0.6745605794472751  0.9081328621907058  0.7533536950801135  1.0000
  H   H54       1.0  0.3254394203185162  0.09186713754350452  0.2466463054175569  1.0000
  H   H55       1.0  0.7462966469980848  0.7537772163879514  0.7746653312195958  1.0000
  H   H56       1.0  0.25370335276770667  0.24622278334625886  0.2253346692780747  1.0000
  H   H57       1.0  0.5371683044549688  0.7953428433134306  0.7386372705456541  1.0000
  H   H58       1.0  0.46283169565028226  0.2046571567731128  0.2613627291951555  1.0000
  C   C1        1.0  0.6938114254702638  0.22228273221353356  0.43901522055403897  1.0000
  C   C2        1.0  0.30618857463498717  0.7777172678730098  0.5609847791867707  1.0000
  C   C3        1.0  0.6319392003226094  0.2523067999569476  0.5261560034730177  1.0000
  C   C4        1.0  0.36806079978264156  0.7476932001295958  0.473843996267792  1.0000
  C   C5        1.0  0.6655860145376747  0.3757832635096067  0.51989624927257  1.0000
  C   C6        1.0  0.33441398556757596  0.6242167365769365  0.4801037504682398  1.0000
  C   C7        1.0  0.6037911519718767  0.40632609631239675  0.6041480390437403  1.0000
  C   C8        1.0  0.3962088481333743  0.5936739037741466  0.3958519606970694  1.0000
  C   C9        1.0  0.5078717431368199  0.31574149754139225  0.697510613274303  1.0000
  C   C10       1.0  0.4921282566289714  0.6842585021928179  0.30248938722336755  1.0000
  C   C11       1.0  0.4767935725422967  0.19220021358678546  0.7026517661550952  1.0000
  C   C12       1.0  0.5232064275629542  0.8077997864997578  0.29734823358571455  1.0000
  C   C13       1.0  0.5362400831405338  0.16029174482610417  0.6189482028243563  1.0000
  C   C14       1.0  0.4637599166252576  0.839708254908106  0.3810517976733142  1.0000
  C   C15       1.0  0.44238736489488983  0.34825767938971625  0.7867622055844036  1.0000
  C   C16       1.0  0.5576126348709016  0.6517423203444941  0.21323779491326694  1.0000
  C   C17       1.0  0.39775084131441735  0.4711945782535456  0.7778820502264123  1.0000
  C   C18       1.0  0.602249158451374  0.5288054214806647  0.2221179502712582  1.0000
  C   C19       1.0  0.33270446958609035  0.5018441726779725  0.8624230751983729  1.0000
  C   C20       1.0  0.6672955305191606  0.49815582740857073  0.13757692454243683  1.0000
  C   C21       1.0  0.31250095330218497  0.4076198308969413  0.9593705979536972  1.0000
  C   C22       1.0  0.687499046803066  0.5923801691896021  0.04062940178711246  1.0000
  C   C23       1.0  0.3601827845390823  0.2847778175413795  0.9698583020838982  1.0000
  C   C24       1.0  0.6398172155661686  0.7152221825451637  0.03014169765691153  1.0000
  C   C25       1.0  0.4226663412892002  0.25585287206850815  0.8850569197167343  1.0000
  C   C26       1.0  0.5773336588160508  0.7441471280180354  0.11494308002407533  1.0000
  C   C27       1.0  0.20151420230957415  0.5472262543282347  0.046126524621298744  1.0000
  C   C28       1.0  0.7984857977956769  0.4527737457583086  0.9538734751195109  1.0000
  C   C29       1.0  0.13540314007259707  0.5298427129752045  0.15622422927852153  1.0000
  C   C30       1.0  0.8645968596931941  0.4701572867590058  0.843775771219149  1.0000
  C   C31       1.0  0.0840152611005314  0.6508562586844592  0.17293287538126667  1.0000
  C   C32       1.0  0.9159847390047194  0.3491437414020842  0.827067124359543  1.0000
  C   C33       1.0  0.0058597263944586055  0.6218208234675318  0.2853372442476188  1.0000
  C   C34       1.0  0.9941402737107925  0.3781791766190117  0.7146627554931908  1.0000
  C   C35       1.0  0.9856036326063977  0.7363685263088615  0.3147510972647669  1.0000
  C   C36       1.0  0.0143963671593937  0.26363147342534865  0.6852489032329036  1.0000
  C   C37       1.0  0.8923597417286072  0.6997818468111229  0.4265760309498599  1.0000
  C   C38       1.0  0.10764025837664366  0.30021815327542045  0.5734239687909498  1.0000
  C   C39       1.0  0.884973544150605  0.8074388016920547  0.4640128524338027  1.0000
  C   C40       1.0  0.11502645595464592  0.1925611983944886  0.535987147307007  1.0000
  C   C41       1.0  0.7947951285880352  0.7653553061987459  0.5767061392474166  1.0000
  C   C42       1.0  0.2052048715172158  0.23464469388779768  0.42329386049339307  1.0000
  C   C43       1.0  0.7801772538759136  0.8724679633266524  0.6153158365400007  1.0000
  C   C44       1.0  0.21982274622933737  0.12753203675989083  0.384684163200809  1.0000
  C   C45       1.0  0.6791424825330017  0.8303718392791751  0.7264700913374985  1.0000
  C   C46       1.0  0.32085751757224906  0.16962816080736834  0.27352990840331115  1.0000
  C   C47       1.0  0.8306625636647391  0.045683681160587186  0.019767117539434647  1.0000
  C   C48       1.0  0.16933743644051177  0.954316318925956  0.9802328822013752  1.0000
  C   C49       1.0  0.9499187682859569  0.04572722698612077  0.07974048499593411  1.0000
  C   C50       1.0  0.05008123147983462  0.9542727727480894  0.9202595155017363  1.0000
  C   C51       1.0  0.12016157867121229  0.9977833307707836  0.05876548574952442  1.0000
  C   C52       1.0  0.8798384214340388  0.002216669315759757  0.9412345139912852  1.0000
  N   N1        1.0  0.7444514824233266  0.19965105667325478  0.3663064542008233  1.0000
  N   N2        1.0  0.25554851734246486  0.8003489430609554  0.6336935462968472  1.0000
  O   O1        1.0  0.24990877009922163  0.42430462027206417  0.04753297721070189  1.0000
  O   O2        1.0  0.7500912296665697  0.575695379462146  0.9524670232869686  1.0000
  F   F1        1.0  0.2425640783465554  0.9926981145161107  0.11454431352662701  1.0000
  F   F2        1.0  0.7574359217586955  0.007301885570432561  0.8854556862141827  1.0000
  F   F3        1.0  0.6616273715620421  0.08831944964074878  0.037584731156285606  1.0000
  F   F4        1.0  0.33837262854320876  0.9116805504457945  0.9624152685845241  1.0000
  I   I1        1.0  0.8748085708808422  0.11639468074706572  0.19454663560968216  1.0000
  I   I2        1.0  0.12519142922440885  0.8836053193394776  0.8054533641311274  1.0000
