data_image0
_chemical_formula_structural       H48C44N4O4
_chemical_formula_sum              "H48 C44 N4 O4"
_cell_length_a       11.354555424198816
_cell_length_b       7.713276785023203
_cell_length_c       11.716777728781409
_cell_angle_alpha    90.0
_cell_angle_beta     114.64958275566758
_cell_angle_gamma    90.0

_space_group_name_H-M_alt    "P 1"
_space_group_IT_number       1

loop_
  _space_group_symop_operation_xyz
  'x, y, z'

loop_
  _atom_site_type_symbol
  _atom_site_label
  _atom_site_symmetry_multiplicity
  _atom_site_fract_x
  _atom_site_fract_y
  _atom_site_fract_z
  _atom_site_occupancy
  H   H1        1.0  0.4101706376359673  0.7788027666353124  0.6809049951550433  1.0000
  H   H2        1.0  0.08982936308645278  0.27880276696093315  0.8190950055232943  1.0000
  H   H3        1.0  0.5898293628819942  0.2211972340099121  0.3190950049443478  1.0000
  H   H4        1.0  0.9101706374315085  0.7211972336842914  0.18090499457609682  1.0000
  H   H5        1.0  0.2607997342177674  0.5252297801456132  0.6209526929041114  1.0000
  H   H6        1.0  0.23920026553544316  0.025229780471233868  0.8790473065292014  1.0000
  H   H7        1.0  0.739200266300194  0.4747702204996114  0.37904730719527974  1.0000
  H   H8        1.0  0.7607997340135145  0.9747702201739907  0.12095269317872492  1.0000
  H   H9        1.0  0.2873976523354414  0.4721758380396359  0.2812748754643734  1.0000
  H   H10       1.0  0.2126023474390375  0.9721758377140153  0.21872512438958974  1.0000
  H   H11       1.0  0.7126023472135165  0.5278241613091228  0.7187251242435528  1.0000
  H   H12       1.0  0.7873976521101259  0.02782416163474346  0.7812748761718966  1.0000
  H   H13       1.0  0.44083375274369907  0.7171927566169088  0.3269614194879962  1.0000
  H   H14       1.0  0.05916624703077975  0.21719275694252949  0.17303858036596698  1.0000
  H   H15       1.0  0.5591662468052585  0.28280724273184993  0.67303858021993  1.0000
  H   H16       1.0  0.9408337525181779  0.7828072437026952  0.8269614193419593  1.0000
  H   H17       1.0  0.6199425784588923  0.8852124097578925  0.5315925306534423  1.0000
  H   H18       1.0  0.880057421833548  0.3852124100835131  0.9684074692999121  1.0000
  H   H19       1.0  0.38005742205906906  0.11478759088733213  0.4684074694459489  1.0000
  H   H20       1.0  0.11994257868441349  0.6147875905617115  0.031592530799479136  1.0000
  H   H21       1.0  0.5596847614117638  0.9580281838645014  0.6410159040983329  1.0000
  H   H22       1.0  0.9403152388806764  0.4580281828936561  0.8589840958550213  1.0000
  H   H23       1.0  0.44031523910619763  0.04197181678072325  0.3589840960010583  1.0000
  H   H24       1.0  0.059684760668281246  0.5419718164551026  0.1410159038529049  1.0000
  H   H25       1.0  0.9697951957771423  0.9668036241717166  0.3206659532677191  1.0000
  H   H26       1.0  0.5302048045365662  0.4668036232008713  0.17933404710628564  1.0000
  H   H27       1.0  0.030204804740819116  0.03319637647350804  0.6793340468316721  1.0000
  H   H28       1.0  0.46979519501239153  0.5331963761478875  0.8206659526016407  1.0000
  H   H29       1.0  0.13830788115298193  0.9222422529698707  0.38956386006039667  1.0000
  H   H30       1.0  0.3616921186214969  0.4222422519990254  0.11043613979356644  1.0000
  H   H31       1.0  0.8616921193649794  0.077757747675354  0.6104361400389944  1.0000
  H   H32       1.0  0.6383078809274608  0.5777577473497334  0.8895638599143598  1.0000
  H   H33       1.0  0.12244185446762623  0.8064036729600244  0.5812145010096531  1.0000
  H   H34       1.0  0.37755814528579007  0.306403673285645  0.9187854992772196  1.0000
  H   H35       1.0  0.8775581450813313  0.19359632768520024  0.41878549869827314  1.0000
  H   H36       1.0  0.622441855232377  0.6935963273595797  0.08121450167573156  1.0000
  H   H37       1.0  0.01737847932151873  0.6908497359185549  0.44681761482603155  1.0000
  H   H38       1.0  0.48262152045296014  0.19084973624417545  0.053182385027931656  1.0000
  H   H39       1.0  0.9826215211964426  0.3091502634302039  0.5531823852733596  1.0000
  H   H40       1.0  0.5173784790959977  0.8091502631045833  0.9468176146799947  1.0000
  H   H41       1.0  0.3964572660315948  0.1580480545398103  0.7545921685425558  1.0000
  H   H42       1.0  0.10354273372182148  0.6580480542141897  0.745407831744317  1.0000
  H   H43       1.0  0.6035427335175685  0.8419519461054144  0.2454078320189305  1.0000
  H   H44       1.0  0.89645726679614  0.34195194643103494  0.2545921683550742  1.0000
  H   H45       1.0  0.15414189511307821  0.34274676816126304  0.4115810614575321  1.0000
  H   H46       1.0  0.3458581046614006  0.8427467691321082  0.08841893839643102  1.0000
  H   H47       1.0  0.8458581044358796  0.6572532311874958  0.5884189382503942  1.0000
  H   H48       1.0  0.6541418958565608  0.15725323151311638  0.9115810617029599  1.0000
  C   C1        1.0  0.44076093920655607  0.7693787174243284  0.5102998774406022  1.0000
  C   C2        1.0  0.05923906054665459  0.26937871774994904  0.9897001219927106  1.0000
  C   C3        1.0  0.5592390603424017  0.23062128322089623  0.489700122267324  1.0000
  C   C4        1.0  0.940760939002303  0.7306212828952755  0.010299877715215735  1.0000
  C   C5        1.0  0.38736030078036526  0.7129930914288403  0.5919572529775547  1.0000
  C   C6        1.0  0.11263969897284537  0.21299309175446085  0.9080427464557579  1.0000
  C   C7        1.0  0.6126396987685924  0.28700690921638444  0.40804274673037155  1.0000
  C   C8        1.0  0.8873603005761123  0.7870069088907637  0.09195725325216834  1.0000
  C   C9        1.0  0.3026944612509442  0.5727272796144979  0.5583502623674707  1.0000
  C   C10       1.0  0.19730553850226643  0.07272727994011853  0.941649737065842  1.0000
  C   C11       1.0  0.6973055392670172  0.4272727210307267  0.4416497377319204  1.0000
  C   C12       1.0  0.8026944610466913  0.9272727207051061  0.05835026264208428  1.0000
  C   C13       1.0  0.31778872280542897  0.5431254714123936  0.369551511168259  1.0000
  C   C14       1.0  0.18221127696925554  0.0431254717380143  0.1304484895392642  1.0000
  C   C15       1.0  0.6822112767437344  0.45687452923283095  0.6304484893932273  1.0000
  C   C16       1.0  0.8177887225799079  0.9568745289072103  0.8695515110222223  1.0000
  C   C17       1.0  0.4040843923520193  0.68091581131873  0.39603923865905755  1.0000
  C   C18       1.0  0.0959156074224595  0.18091581164435058  0.10396076119490562  1.0000
  C   C19       1.0  0.5959156071969384  0.31908418803002875  0.6039607610488686  1.0000
  C   C20       1.0  0.9040843930955019  0.8190841890008741  0.8960392389044854  1.0000
  C   C21       1.0  0.531407668738995  0.9213278711582786  0.542508817676565  1.0000
  C   C22       1.0  0.968592331553651  0.4213278714838993  0.9574911831303493  1.0000
  C   C23       1.0  0.46859233081016843  0.07867212819048014  0.4574911828849213  1.0000
  C   C24       1.0  0.03140766896451613  0.5786721291613254  0.042508817822601866  1.0000
  C   C25       1.0  0.07772273006114394  0.13851295626710564  0.4703683848337091  1.0000
  C   C26       1.0  0.42227727068233867  0.6385129559414849  0.029631615411718958  1.0000
  C   C27       1.0  0.9222772704568174  0.8614870430816531  0.5296316152656821  1.0000
  C   C28       1.0  0.5777227298356228  0.3614870434072738  0.9703683846876722  1.0000
  C   C29       1.0  0.05549024124150265  0.9564934820341476  0.41052821267052003  1.0000
  C   C30       1.0  0.44450975853297614  0.4564934823597683  0.0894717871834431  1.0000
  C   C31       1.0  0.9445097583074551  0.043506517314611116  0.5894717870374062  1.0000
  C   C32       1.0  0.5554902419849852  0.5435065169889904  0.9105282129159479  1.0000
  C   C33       1.0  0.03477525035991466  0.8182404049410777  0.49308138781146926  1.0000
  C   C34       1.0  0.46522474941456426  0.3182404052666983  0.006918612042493908  1.0000
  C   C35       1.0  0.965224749189043  0.1817595944076811  0.506918611896457  1.0000
  C   C36       1.0  0.5347752511036029  0.6817595940820605  0.9930813889104573  1.0000
  C   C37       1.0  0.20151506874078634  0.14381050763714595  0.5819880155263744  1.0000
  C   C38       1.0  0.29848493101262996  0.6438105073115253  0.9180119847604984  1.0000
  C   C39       1.0  0.7984849308081713  0.8561894930080787  0.4180119841815518  1.0000
  C   C40       1.0  0.7015150685363277  0.35618949333369926  0.08198801494742793  1.0000
  C   C41       1.0  0.3033914043001882  0.14766672864787822  0.6749576948996961  1.0000
  C   C42       1.0  0.19660859642202616  0.6476667283222576  0.8250423049250815  1.0000
  C   C43       1.0  0.6966085962177733  0.8523332719973464  0.325042305199695  1.0000
  C   C44       1.0  0.8033914040959352  0.3523332710265012  0.17495769517430967  1.0000
  N   N1        1.0  0.2675061216124812  0.48875663677984543  0.4488228889878091  1.0000
  N   N2        1.0  0.2324938791310013  0.9887566377506907  0.051177111257618875  1.0000
  N   N3        1.0  0.7324938789054801  0.5112433625689133  0.551177111111582  1.0000
  N   N4        1.0  0.7675061213869602  0.011243362894533948  0.9488228888417722  1.0000
  O   O1        1.0  0.07636037426281717  0.26026426717862955  0.3772841786678317  1.0000
  O   O2        1.0  0.4236396264806654  0.760264266853009  0.12271582157759624  1.0000
  O   O3        1.0  0.9236396262551442  0.739735733466595  0.6227158214315593  1.0000
  O   O4        1.0  0.576360374037296  0.2397357337922157  0.8772841785217949  1.0000
