data_image0
_chemical_formula_structural       H72C78N2O4P4Br2
_chemical_formula_sum              "H72 C78 N2 O4 P4 Br2"
_cell_length_a       9.061005166734576
_cell_length_b       10.446420952631753
_cell_length_c       17.062733592923603
_cell_angle_alpha    89.20840983825082
_cell_angle_beta     96.5943091361586
_cell_angle_gamma    92.80606914127888

_space_group_name_H-M_alt    "P 1"
_space_group_IT_number       1

loop_
  _space_group_symop_operation_xyz
  'x, y, z'

loop_
  _atom_site_type_symbol
  _atom_site_label
  _atom_site_symmetry_multiplicity
  _atom_site_fract_x
  _atom_site_fract_y
  _atom_site_fract_z
  _atom_site_occupancy
  H   H1        1.0  0.7397947610459761  0.30726415330853385  0.8201907418430818  1.0000
  H   H2        1.0  0.26020523939987156  0.6927358470601855  0.17980925819820928  1.0000
  H   H3        1.0  0.7959718691382227  0.10729459264800165  0.8903564267992075  1.0000
  H   H4        1.0  0.20402813119515328  0.892705407716289  0.10964357265219378  1.0000
  H   H5        1.0  0.590992978529331  0.9734175810730508  0.9438856549816208  1.0000
  H   H6        1.0  0.40900702175856357  0.02658241833282212  0.05611434447743055  1.0000
  H   H7        1.0  0.3317057684675177  0.047164211815719344  0.925657135614165  1.0000
  H   H8        1.0  0.6682942308272392  0.9528357875884773  0.07434286442662266  1.0000
  H   H9        1.0  0.273868631613225  0.24870885881290403  0.8548822141569781  1.0000
  H   H10       1.0  0.7261313676145414  0.7512911415452816  0.14511778528626962  1.0000
  H   H11       1.0  0.19188460422213244  0.26099757178818145  0.7325023591715533  1.0000
  H   H12       1.0  0.8081153962237151  0.739002428580538  0.26749764086973804  1.0000
  H   H13       1.0  0.0906419214297022  0.17808623539740326  0.6030992999715729  1.0000
  H   H14       1.0  0.9093580790161452  0.8219137649713161  0.3969007000697183  1.0000
  H   H15       1.0  0.18287227344166848  0.2642691223587177  0.48015174182966497  1.0000
  H   H16       1.0  0.8171277258985695  0.7357308780038967  0.5198482582034726  1.0000
  H   H17       1.0  0.3796308629913597  0.44100151696303624  0.488147208461329  1.0000
  H   H18       1.0  0.6203691363488784  0.5589984833995781  0.5118527915718085  1.0000
  H   H19       1.0  0.49934677524035476  0.5138083331927823  0.6192253200220496  1.0000
  H   H20       1.0  0.5006532240544019  0.4861916662114142  0.38077468001873804  1.0000
  H   H21       1.0  0.1782184905665874  0.5665482513390968  0.7441184036194829  1.0000
  H   H22       1.0  0.8217815087736506  0.4334517490235176  0.2558815964136547  1.0000
  H   H23       1.0  0.06996885529096318  0.7295730486892317  0.8224591573066807  1.0000
  H   H24       1.0  0.9300311451094031  0.2704269507210699  0.17754084274226045  1.0000
  H   H25       1.0  0.1934964987386867  0.7932322973072738  0.9539196212646389  1.0000
  H   H26       1.0  0.8065035017071609  0.20676770306144565  0.046080378776652206  1.0000
  H   H27       1.0  0.42614571740695517  0.6912813358813155  0.009875302581434077  1.0000
  H   H28       1.0  0.573854282993411  0.3087186635289862  0.990124697467507  1.0000
  H   H29       1.0  0.5338200962168507  0.5272984361615473  0.9334193361790131  1.0000
  H   H30       1.0  0.4661799042289968  0.4727015642071723  0.066580663862278  1.0000
  H   H31       1.0  0.6283608353244188  0.7355046093814032  0.6022589595788395  1.0000
  H   H32       1.0  0.37163916512142864  0.2644953909873163  0.3977410404624517  1.0000
  H   H33       1.0  0.4533148252488664  0.8929829019812018  0.5435979704318069  1.0000
  H   H34       1.0  0.5466851751515  0.10701709742909984  0.4564020296171342  1.0000
  H   H35       1.0  0.3091592944303576  0.01800456872135189  0.6304518144537827  1.0000
  H   H36       1.0  0.6908407049098803  0.9819954316412625  0.3695481855793548  1.0000
  H   H37       1.0  0.3310752524767412  0.9739420858104745  0.7738390127376946  1.0000
  H   H38       1.0  0.6689247479236251  0.026057913599826982  0.2261609873112465  1.0000
  H   H39       1.0  0.5046711647467622  0.813541357084426  0.833462326870855  1.0000
  H   H40       1.0  0.4953288345934757  0.18645864327818848  0.16653767316228266  1.0000
  H   H41       1.0  0.9078296347221344  0.8406674252985472  0.7127488398617451  1.0000
  H   H42       1.0  0.09217036461810353  0.1593325750640671  0.28725116017139246  1.0000
  H   H43       1.0  0.10791257375639562  0.8365918409365204  0.6258118580937605  1.0000
  H   H44       1.0  0.8920874266439708  0.1634081584737814  0.3741881419551808  1.0000
  H   H45       1.0  0.1534934634135579  0.6371490864601721  0.5571924413955165  1.0000
  H   H46       1.0  0.8465065358811988  0.36285091294402444  0.442807558645271  1.0000
  H   H47       1.0  0.0007616751189880449  0.4364319694716017  0.5794859970943288  1.0000
  H   H48       1.0  0.9992383242212499  0.5635680308910126  0.4205140029388088  1.0000
  H   H49       1.0  0.8065428935183471  0.4369977089584289  0.6709225494440749  1.0000
  H   H50       1.0  0.193457105821891  0.5630022914041856  0.3290774505890627  1.0000
  H   H51       1.0  0.7875675533782459  0.8881518491788387  0.8406024907641594  1.0000
  H   H52       1.0  0.21243244706760164  0.1118481511898808  0.15939750927713175  1.0000
  H   H53       1.0  0.8922675098173793  0.9388401788100296  0.9773904231286633  1.0000
  H   H54       1.0  0.10773249062846815  0.061159821558689875  0.02260957691262797  1.0000
  H   H55       1.0  0.939503138145236  0.7623634890931749  0.07789487645514408  1.0000
  H   H56       1.0  0.060496861149520964  0.23763651031102173  0.9221051235856434  1.0000
  H   H57       1.0  0.8857144342157314  0.5367064611287278  0.0365342645875426  1.0000
  H   H58       1.0  0.11428556618463509  0.46329353828157377  0.9634657354613988  1.0000
  H   H59       1.0  0.7850440433025981  0.4841620110688452  0.8988629271008185  1.0000
  H   H60       1.0  0.2149559571432493  0.5158379892998742  0.10113707294047264  1.0000
  H   H61       1.0  0.11755136052747238  0.9268053535592709  0.4907583096233207  1.0000
  H   H62       1.0  0.8824486388127656  0.07319464680334357  0.5092416904098169  1.0000
  H   H63       1.0  0.09071280048353503  0.9807480675194764  0.3890743209493643  1.0000
  H   H64       1.0  0.9092871988112217  0.019251931884720134  0.6109256790914234  1.0000
  H   H65       1.0  0.257395114918497  0.022779178878744363  0.4483339309120227  1.0000
  H   H66       1.0  0.7426048855273505  0.9772208214899749  0.5516660691292683  1.0000
  H   H67       1.0  0.36757900951400957  0.7576640714041494  0.3239537507417886  1.0000
  H   H68       1.0  0.6324209908863567  0.24233592800615222  0.6760462493071525  1.0000
  H   H69       1.0  0.3251107599279818  0.9237945732529848  0.3113150917554917  1.0000
  H   H70       1.0  0.6748892405178657  0.07620542711573454  0.6886849082857994  1.0000
  H   H71       1.0  0.18273922466734877  0.8034989683347471  0.287604257095218  1.0000
  H   H72       1.0  0.8172607757784988  0.19650103203397237  0.7123957429460731  1.0000
  C   C1        1.0  0.5039086500643278  0.2917114605171786  0.8331695778854789  1.0000
  C   C2        1.0  0.4960913492759102  0.7082885398454357  0.1668304221476587  1.0000
  C   C3        1.0  0.650265987740619  0.2515146410699057  0.8440360892240983  1.0000
  C   C4        1.0  0.3497340126597473  0.7484853583403959  0.1559639108248429  1.0000
  C   C5        1.0  0.6816218340495461  0.13727283113211725  0.884179724027479  1.0000
  C   C6        1.0  0.3183781652906918  0.8627271692304972  0.11582027600565856  1.0000
  C   C7        1.0  0.5672414717183931  0.06388256398173478  0.9137065034405322  1.0000
  C   C8        1.0  0.4327585286819732  0.9361174354285668  0.08629349660840895  1.0000
  C   C9        1.0  0.4216807959832766  0.10497017107198114  0.9036681904884033  1.0000
  C   C10       1.0  0.5783192033569613  0.8950298292906333  0.09633180954473426  1.0000
  C   C11       1.0  0.3886831154143429  0.2189145640476898  0.863408075405981  1.0000
  C   C12       1.0  0.6113168849860233  0.7810854353626118  0.1365919246429602  1.0000
  C   C13       1.0  0.35956503956084784  0.3894729338788955  0.6844706894747657  1.0000
  C   C14       1.0  0.6404349608849997  0.6105270664898239  0.3155293105665254  1.0000
  C   C15       1.0  0.24177764709806404  0.29633712922206057  0.6802700910502903  1.0000
  C   C16       1.0  0.7582223533477834  0.7036628711466589  0.31972990899100073  1.0000
  C   C17       1.0  0.18118770825342653  0.25101141076622596  0.6063790036180077  1.0000
  C   C18       1.0  0.8188122910868115  0.7489885895963884  0.3936209964151299  1.0000
  C   C19       1.0  0.2325712043217446  0.30004444907074435  0.5373358299980936  1.0000
  C   C20       1.0  0.7674287949060218  0.6999555512874414  0.46266416944515404  1.0000
  C   C21       1.0  0.3437375454847821  0.3978522301459081  0.5416995516691797  1.0000
  C   C22       1.0  0.6562624548031125  0.6021477692599649  0.4583004477898715  1.0000
  C   C23       1.0  0.40867257231926146  0.4410587072326458  0.6151053322067316  1.0000
  C   C24       1.0  0.5913274269754953  0.5589412921715508  0.384894667834056  1.0000
  C   C25       1.0  0.36305685366261214  0.5363960496837371  0.8337017295164699  1.0000
  C   C26       1.0  0.6369431456321446  0.46360394972045943  0.16629827052431764  1.0000
  C   C27       1.0  0.2317020863486234  0.5926655416249558  0.8025257490244654  1.0000
  C   C28       1.0  0.768297914097224  0.4073344587437637  0.19747425101682578  1.0000
  C   C29       1.0  0.17126926156894734  0.6846265051033058  0.8465313444498782  1.0000
  C   C30       1.0  0.8287307388314189  0.3153734943069958  0.15346865559906303  1.0000
  C   C31       1.0  0.24116523982022578  0.7206927500928475  0.9205419882678981  1.0000
  C   C32       1.0  0.7588347605801405  0.2793072493174541  0.07945801178104317  1.0000
  C   C33       1.0  0.3712926042006919  0.66332477794941  0.9521209202001897  1.0000
  C   C34       1.0  0.6287073951395462  0.33667522241320436  0.04787907983294779  1.0000
  C   C35       1.0  0.43158236105313497  0.5708302672652271  0.9090897963908666  1.0000
  C   C36       1.0  0.5684176393927126  0.4291697331034924  0.0909102036504246  1.0000
  C   C37       1.0  0.5806459117223506  0.7655566770583082  0.7221100439824922  1.0000
  C   C38       1.0  0.41935408872349694  0.2344433233104113  0.2778899560587989  1.0000
  C   C39       1.0  0.5640650069702897  0.7878711905208244  0.6402184949338908  1.0000
  C   C40       1.0  0.4359349934300766  0.2121288088894771  0.35978150511505047  1.0000
  C   C41       1.0  0.46596105699185475  0.8776175846362667  0.6071945714386162  1.0000
  C   C42       1.0  0.534038943341521  0.12238241572802398  0.392805428012785  1.0000
  C   C43       1.0  0.3838596279503168  0.9456253279680905  0.655616966548693  1.0000
  C   C44       1.0  0.6161403724955308  0.05437467240062874  0.3443830334925982  1.0000
  C   C45       1.0  0.39752783085124305  0.9220139985758241  0.7367543151903987  1.0000
  C   C46       1.0  0.6024721695946044  0.07798600179289518  0.2632456848508925  1.0000
  C   C47       1.0  0.49522605289892946  0.8320474757278159  0.7701559200050478  1.0000
  C   C48       1.0  0.5047739475014369  0.16795252368248573  0.2298440800438933  1.0000
  C   C49       1.0  0.8456059688958758  0.6378153944741852  0.6981312528122529  1.0000
  C   C50       1.0  0.1543940315499717  0.3621846058945341  0.3018687472290382  1.0000
  C   C51       1.0  0.929487859341527  0.7510682778920674  0.6847198308429286  1.0000
  C   C52       1.0  0.07051214110432051  0.24893172247665196  0.31528016919836255  1.0000
  C   C53       1.0  0.04125931350039914  0.7492108887509046  0.635147248018386  1.0000
  C   C54       1.0  0.9587406869454485  0.2507891116178149  0.36485275202290507  1.0000
  C   C55       1.0  0.0680665687574096  0.6359953480346953  0.5972911075044893  1.0000
  C   C56       1.0  0.9319334305828283  0.364004652327919  0.4027088925286483  1.0000
  C   C57       1.0  0.9826087423091504  0.524279801427655  0.609722562221063  1.0000
  C   C58       1.0  0.017391256985606295  0.4757201979765416  0.3902774378197246  1.0000
  C   C59       1.0  0.8726774340441006  0.524168263531206  0.6607717942327371  1.0000
  C   C60       1.0  0.12732256640174694  0.4758317368375134  0.33922820580855406  1.0000
  C   C61       1.0  0.7774117549393132  0.6826333984792303  0.8606015912768019  1.0000
  C   C62       1.0  0.22258824435544347  0.3173666009249663  0.13939840876398574  1.0000
  C   C63       1.0  0.8090505318710924  0.8106010199537638  0.8830951481092502  1.0000
  C   C64       1.0  0.1909494685747551  0.1893989804149556  0.11690485193204107  1.0000
  C   C65       1.0  0.8683895378064145  0.8389595147843286  0.9605222529344057  1.0000
  C   C66       1.0  0.13161046153382347  0.16104048557828576  0.0394777470987318  1.0000
  C   C67       1.0  0.8958583401917338  0.7411513515354619  0.016294666112832507  1.0000
  C   C68       1.0  0.10414165914850414  0.2588486488271525  0.9837053339203052  1.0000
  C   C69       1.0  0.8652846847750959  0.6135918476798194  0.9934263683084967  1.0000
  C   C70       1.0  0.13471531562527042  0.3864081517304822  0.006573631740444509  1.0000
  C   C71       1.0  0.808040916493559  0.5839325599886563  0.9160796276143168  1.0000
  C   C72       1.0  0.19195908280119772  0.41606743941554014  0.08392037242647071  1.0000
  C   C73       1.0  0.24155350877157666  0.8272728481792141  0.41122072359476675  1.0000
  C   C74       1.0  0.7584464916742709  0.17272715218950532  0.5887792764465245  1.0000
  C   C75       1.0  0.17062469451747714  0.9456053129205055  0.4369533118411036  1.0000
  C   C76       1.0  0.8293753058828891  0.05439468648979606  0.5630466882078375  1.0000
  C   C77       1.0  0.28405411512326606  0.8284250310887793  0.3292130728132627  1.0000
  C   C78       1.0  0.7159458853225815  0.17157496927994  0.6707869272280285  1.0000
  N   N1        1.0  0.6214583557404204  0.50033185714603  0.759024837940649  1.0000
  N   N2        1.0  0.37854164355433634  0.49966814225816647  0.2409751621001386  1.0000
  O   O1        1.0  0.2615922605990669  0.7343725597529185  0.45601380106886386  1.0000
  O   O2        1.0  0.7384077398467807  0.2656274406158009  0.5439861989724272  1.0000
  O   O3        1.0  0.007439759508573203  0.2175450333172767  0.7991646844416483  1.0000
  O   O4        1.0  0.9925602398316649  0.7824549670453376  0.20083531559148912  1.0000
  P   P1        1.0  0.46587002612588013  0.43564560786528334  0.7767062648317301  1.0000
  P   P2        1.0  0.5341299742744862  0.5643543915450183  0.22329373521721108  1.0000
  P   P3        1.0  0.6992784021082165  0.6399120473068131  0.7613988575585877  1.0000
  P   P4        1.0  0.3007215971865403  0.36008795209738353  0.23860114248219985  1.0000
  Br  Br1       1.0  0.04006277620339363  0.047660060691947  0.7933841794551977  1.0000
  Br  Br2       1.0  0.9599372241969726  0.9523399387183547  0.20661582059374342  1.0000
