data_image0
_chemical_formula_structural       H20C34N2O2F8S2I2
_chemical_formula_sum              "H20 C34 N2 O2 F8 S2 I2"
_cell_length_a       8.208939642873386
_cell_length_b       10.23827522024049
_cell_length_c       10.487826172947813
_cell_angle_alpha    78.64479325083542
_cell_angle_beta     88.97775647059154
_cell_angle_gamma    71.46041506204963

_space_group_name_H-M_alt    "P 1"
_space_group_IT_number       1

loop_
  _space_group_symop_operation_xyz
  'x, y, z'

loop_
  _atom_site_type_symbol
  _atom_site_label
  _atom_site_symmetry_multiplicity
  _atom_site_fract_x
  _atom_site_fract_y
  _atom_site_fract_z
  _atom_site_occupancy
  H   H1        1.0  0.17644882970558856  0.03734220134866565  0.13627223398003002  1.0000
  H   H2        1.0  0.8235511707265614  0.9626577988512446  0.8637277661229181  1.0000
  H   H3        1.0  0.1946610622458246  0.1473847110476788  0.24503992596721968  1.0000
  H   H4        1.0  0.8053389369698933  0.8526152891477217  0.7549600741378585  1.0000
  H   H5        1.0  0.9280644008235577  0.16961203721061358  0.9621556683279687  1.0000
  H   H6        1.0  0.07193559839216032  0.8303879629847867  0.0378443317771095  1.0000
  H   H7        1.0  0.5640920104126361  0.43119024514721244  0.21870730310256625  1.0000
  H   H8        1.0  0.4359079900195137  0.5688097550526979  0.781292697000382  1.0000
  H   H9        1.0  0.8543290413009172  0.26810364865637754  0.350311128475578  1.0000
  H   H10       1.0  0.14567095913123262  0.7318963515435327  0.6496888716273703  1.0000
  H   H11       1.0  0.48870411329662355  0.8959319130772153  0.9152265695989585  1.0000
  H   H12       1.0  0.5112958859190944  0.1040680871181852  0.08477343050611964  1.0000
  H   H13       1.0  0.7064810271279274  0.9519068377123466  0.21563459810480626  1.0000
  H   H14       1.0  0.293518972024729  0.048093162691361935  0.7843654010266282  1.0000
  H   H15       1.0  0.9447527632425168  0.7591206332540753  0.3427733064165488  1.0000
  H   H16       1.0  0.0552472371265715  0.24087936715414296  0.6572266927127559  1.0000
  H   H17       1.0  0.9333448465629212  0.4859972858608799  0.10249078186893405  1.0000
  H   H18       1.0  0.06665515258973517  0.5140027145428286  0.8975092172625004  1.0000
  H   H19       1.0  0.6940470701544015  0.6682893971521306  0.9613622160418483  1.0000
  H   H20       1.0  0.30595292906131644  0.3317106030432697  0.03863778406322973  1.0000
  C   C1        1.0  0.5569251254874148  0.7201042585282846  0.5266367680972862  1.0000
  C   C2        1.0  0.443074874944735  0.27989574167162556  0.473363232005662  1.0000
  C   C3        1.0  0.49770253232673395  0.6921508334877445  0.41458769043325117  1.0000
  C   C4        1.0  0.5022974681054159  0.3078491667121657  0.5854123096696972  1.0000
  C   C5        1.0  0.34676436573405417  0.7812679634998798  0.3461487277146219  1.0000
  C   C6        1.0  0.6532356334816637  0.21873203669552066  0.6538512723904563  1.0000
  C   C7        1.0  0.24773877892557095  0.9029137706239211  0.38777326139361623  1.0000
  C   C8        1.0  0.7522612215065787  0.09708622957598938  0.612226738709332  1.0000
  C   C9        1.0  0.30852169281721387  0.9326205764095478  0.49901014351452033  1.0000
  C   C10       1.0  0.6914783076149359  0.06737942379036257  0.500989856588428  1.0000
  C   C11       1.0  0.4592065874414182  0.8419852049957073  0.5667279668931868  1.0000
  C   C12       1.0  0.5407934129907317  0.158014795204203  0.4332720332097614  1.0000
  C   C13       1.0  0.1129297796920141  0.09151026541210106  0.2132465907870187  1.0000
  C   C14       1.0  0.8870702195237038  0.9084897347832994  0.7867534093180595  1.0000
  C   C15       1.0  0.9381710671902986  0.1900374659142403  0.16833596631278047  1.0000
  C   C16       1.0  0.0618289336554053  0.8099625332547029  0.8316640337938058  1.0000
  C   C17       1.0  0.8695687624647739  0.21572695197967917  0.043346910411166645  1.0000
  C   C18       1.0  0.13043123838093013  0.784273047189264  0.9566530896954196  1.0000
  C   C19       1.0  0.6727940899620282  0.3573703408796035  0.1830307611623177  1.0000
  C   C20       1.0  0.32720591047012154  0.6426296593203067  0.8169692389406306  1.0000
  C   C21       1.0  0.8241339198929605  0.27207526852722724  0.24872655071698135  1.0000
  C   C22       1.0  0.1758660808896818  0.7279247308500241  0.7512734484159613  1.0000
  C   C23       1.0  0.5361220799084813  0.9326736114789725  0.9933768125592142  1.0000
  C   C24       1.0  0.46387791972079073  0.0673263876854609  0.0066231875495019335  1.0000
  C   C25       1.0  0.6769086365527412  0.8271937895479945  0.07582203471150097  1.0000
  C   C26       1.0  0.3230913638794086  0.17280621065191573  0.9241779653914474  1.0000
  C   C27       1.0  0.7513768895599042  0.8510855498772197  0.18546558290318518  1.0000
  C   C28       1.0  0.2486231108722455  0.14891445032269057  0.8145344171997632  1.0000
  C   C29       1.0  0.8851295119572286  0.7430904351560167  0.25760058994919877  1.0000
  C   C30       1.0  0.11487048847492126  0.25690956504389356  0.7423994101537496  1.0000
  C   C31       1.0  0.8794769145704371  0.5912155014398054  0.12334798184911809  1.0000
  C   C32       1.0  0.12052308505883494  0.40878449772462794  0.8766520182595982  1.0000
  C   C33       1.0  0.7455147356292271  0.6930909446002942  0.045393465416326134  1.0000
  C   C34       1.0  0.25448526400004506  0.3069090545641392  0.95460653469239  1.0000
  N   N1        1.0  0.9483907471524003  0.6149306600982701  0.22789480985521243  1.0000
  N   N2        1.0  0.05160925327974961  0.38506934010164007  0.7721051902477358  1.0000
  O   O1        1.0  0.09497558012945857  0.9871143760322574  0.32539358406269536  1.0000
  O   O2        1.0  0.9050244203026913  0.012885624167652815  0.674606416040253  1.0000
  F   F1        1.0  0.5875701047250723  0.5754622805253566  0.3697393428976435  1.0000
  F   F2        1.0  0.4124298961206317  0.4245377186435865  0.6302606572089428  1.0000
  F   F3        1.0  0.2936546966998766  0.7517014798425207  0.23660207260961616  1.0000
  F   F4        1.0  0.7063453037322732  0.2482985203573896  0.763397927493332  1.0000
  F   F5        1.0  0.2194965419825429  0.05171357580537334  0.5396788227252627  1.0000
  F   F6        1.0  0.7805034571701134  0.9482864245983351  0.4603211764061719  1.0000
  F   F7        1.0  0.5101133327975198  0.8753062711786044  0.6756894988089586  1.0000
  F   F8        1.0  0.48988666683175225  0.12469372798582892  0.32431050129975764  1.0000
  S   S1        1.0  0.6697423061537946  0.3399559679265178  0.023710396531255767  1.0000
  S   S2        1.0  0.33025769306192326  0.6600440322688826  0.9762896035738223  1.0000
  I   I1        1.0  0.7827555436460092  0.5769073543868265  0.6343252907644448  1.0000
  I   I2        1.0  0.21724445556970864  0.423092645808574  0.3656747093406334  1.0000
