data_image0
_chemical_formula_structural       H30C12N6O20S2
_chemical_formula_sum              "H30 C12 N6 O20 S2"
_cell_length_a       9.03496757095062
_cell_length_b       12.627454385143112
_cell_length_c       5.360433204390872
_cell_angle_alpha    90.0
_cell_angle_beta     99.76297922287604
_cell_angle_gamma    90.0

_space_group_name_H-M_alt    "P 1"
_space_group_IT_number       1

loop_
  _space_group_symop_operation_xyz
  'x, y, z'

loop_
  _atom_site_type_symbol
  _atom_site_label
  _atom_site_symmetry_multiplicity
  _atom_site_fract_x
  _atom_site_fract_y
  _atom_site_fract_z
  _atom_site_occupancy
  H   H1        1.0  0.2879033370868695  0.16435274257983226  0.9134891226727159  1.0000
  H   H2        1.0  0.7120966636836646  0.6643527423761841  0.08651087839289837  1.0000
  H   H3        1.0  0.2656128263196384  0.29236626301684787  0.0430815974566505  1.0000
  H   H4        1.0  0.7343871744508956  0.7923662628131998  0.9569184036089636  1.0000
  H   H5        1.0  0.39961234865133377  0.36360189630952006  0.7240269291186917  1.0000
  H   H6        1.0  0.6003876521713064  0.8636018968977971  0.27597307009830313  1.0000
  H   H7        1.0  0.2343436409402243  0.3095690889684965  0.5920219710113598  1.0000
  H   H8        1.0  0.7656563587084435  0.8095690887648485  0.4079780296470574  1.0000
  H   H9        1.0  0.3979482455111864  0.2476696002703125  0.5739739278889702  1.0000
  H   H10       1.0  0.6020517541895876  0.7476696000666644  0.4260260709208278  1.0000
  H   H11       1.0  0.3044524652916508  0.6475297063531884  0.3940914606831762  1.0000
  H   H12       1.0  0.695547534357017  0.14752970655683637  0.605908539975241  1.0000
  H   H13       1.0  0.2897714529995115  0.5197788627708128  0.5217743945664671  1.0000
  H   H14       1.0  0.7102285466491564  0.019778862974460815  0.47822560609195014  1.0000
  H   H15       1.0  0.060289087469264695  0.6317910385316021  0.1488296406197107  1.0000
  H   H16       1.0  0.9397109133533755  0.1317910387352501  0.8511703585972842  1.0000
  H   H17       1.0  0.04324381381825661  0.5989913746114297  0.44239454662250993  1.0000
  H   H18       1.0  0.9567561870043836  0.09899137402315257  0.5576054525944849  1.0000
  H   H19       1.0  0.04906615235420178  0.5000731269660756  0.23190996913019174  1.0000
  H   H20       1.0  0.9509338484163323  7.31271697236493e-05  0.7680900319354225  1.0000
  H   H21       1.0  0.6819394925361356  0.4836069673064821  0.49740798043164103  1.0000
  H   H22       1.0  0.3180605071125323  0.983606967102834  0.5025920202267762  1.0000
  H   H23       1.0  0.6833522932940489  0.35004667727809047  0.6069370103414088  1.0000
  H   H24       1.0  0.3166477064067249  0.8500466770744425  0.39306298846838916  1.0000
  H   H25       1.0  0.9310071425708433  0.3751164871023461  0.8413500391604148  1.0000
  H   H26       1.0  0.06899285707782472  0.8751164876906233  0.15864996149800248  1.0000
  H   H27       1.0  0.9316610039162028  0.4033669665037774  0.5407862506093786  1.0000
  H   H28       1.0  0.06833899573246531  0.9033669670920547  0.45921375004903875  1.0000
  H   H29       1.0  0.9300787820507213  0.5061797378195446  0.7418912145551304  1.0000
  H   H30       1.0  0.0699212175979468  0.006179737231267425  0.2581087861032869  1.0000
  C   C1        1.0  0.49563474749050984  0.2326156484442299  0.10408181781548223  1.0000
  C   C2        1.0  0.5043652532800242  0.7326156482405819  0.895918183250132  1.0000
  C   C3        1.0  0.3365154809429565  0.24381683640230442  0.942174260208918  1.0000
  C   C4        1.0  0.6634845187057116  0.7438168361986565  0.057825740449499265  1.0000
  C   C5        1.0  0.3191689815567255  0.5214968131461096  0.1227458050251262  1.0000
  C   C6        1.0  0.6808310181440483  0.02149681334975763  0.8772541937846718  1.0000
  C   C7        1.0  0.2570938556811509  0.5684052954049656  0.35275905399038876  1.0000
  C   C8        1.0  0.7429061450893832  0.06840529560861369  0.6472409470752254  1.0000
  C   C9        1.0  0.671508911401202  0.46820849631863415  0.8991488143576762  1.0000
  C   C10       1.0  0.32849108936933213  0.968208496114986  0.10085118670793788  1.0000
  C   C11       1.0  0.7245295699670985  0.43037995182893757  0.6544718232079814  1.0000
  C   C12       1.0  0.2754704308555416  0.9303799516252895  0.34552817600901353  1.0000
  N   N1        1.0  0.3416803235687762  0.29282893901010854  0.6933376236462452  1.0000
  N   N2        1.0  0.6583196760798918  0.7928289388064603  0.3066623770121721  1.0000
  N   N3        1.0  0.0921930240000194  0.573526927843891  0.2881297583660948  1.0000
  N   N4        1.0  0.9078069756486484  0.07352692804753912  0.7118702422923225  1.0000
  N   N5        1.0  0.8900934948825783  0.4302556765829429  0.6992285496063994  1.0000
  N   N6        1.0  0.1099065047660898  0.930255676379295  0.30077145105201786  1.0000
  O   O1        1.0  0.6015802586021057  0.2406754122648574  0.9809430972200154  1.0000
  O   O2        1.0  0.39841974109866823  0.7406754120612093  0.019056901589782654  1.0000
  O   O3        1.0  0.4976012565796827  0.2148858120756733  0.3365964000642289  1.0000
  O   O4        1.0  0.5023987431210913  0.7148858118720253  0.663403598745569  1.0000
  O   O5        1.0  0.23182890379496335  0.4965935673763221  0.9289327864582582  1.0000
  O   O6        1.0  0.7681710970276768  0.9965935671726739  0.07106721275873666  1.0000
  O   O7        1.0  0.4634082264936833  0.513756212624519  0.17934111418650842  1.0000
  O   O8        1.0  0.5365917732070906  0.013756212828167053  0.8206588846232895  1.0000
  O   O9        1.0  0.7633674770694198  0.49234445046300906  0.0875338848457527  1.0000
  O   O10       1.0  0.23663252370111426  0.9923444510512862  0.9124661162198614  1.0000
  O   O11       1.0  0.5260557919944272  0.4716799299633737  0.8604941219724569  1.0000
  O   O12       1.0  0.4739442077063468  0.9716799305516509  0.13950587683734092  1.0000
  O   O13       1.0  0.9747419213497427  0.25394701118642427  0.989598761817527  1.0000
  O   O14       1.0  0.025258079472897283  0.7539470117747015  0.0104012373994677  1.0000
  O   O15       1.0  0.8461353317893633  0.2515193587819881  0.3593396787247195  1.0000
  O   O16       1.0  0.1538646679114106  0.7515193585783401  0.6406603200850784  1.0000
  O   O17       1.0  0.07749800394707976  0.15273978358371562  0.36537729628424676  1.0000
  O   O18       1.0  0.9225019957015881  0.6527397833800676  0.6346227043741705  1.0000
  O   O19       1.0  0.07979306157428545  0.3473951689868079  0.37432711919104916  1.0000
  O   O20       1.0  0.9202069391962486  0.8473951687831598  0.625672881874565  1.0000
  S   S1        1.0  0.9912350808336776  0.25051817203330545  0.2712126149662308  1.0000
  S   S2        1.0  0.008764919988962415  0.7505181726215827  0.7287873842507641  1.0000
