data_image0
_chemical_formula_structural       H34C12N6O20S2
_chemical_formula_sum              "H34 C12 N6 O20 S2"
_cell_length_a       9.432604478793362
_cell_length_b       12.489583476125752
_cell_length_c       5.703254638920272
_cell_angle_alpha    90.0
_cell_angle_beta     110.54993000625487
_cell_angle_gamma    90.0

_space_group_name_H-M_alt    "P 1"
_space_group_IT_number       1

loop_
  _space_group_symop_operation_xyz
  'x, y, z'

loop_
  _atom_site_type_symbol
  _atom_site_label
  _atom_site_symmetry_multiplicity
  _atom_site_fract_x
  _atom_site_fract_y
  _atom_site_fract_z
  _atom_site_occupancy
  H   H1        1.0  0.4244880277140834  0.35655755041891857  0.1965195961073722  1.0000
  H   H2        1.0  0.5755119721551648  0.8565575505740176  0.8034804045886049  1.0000
  H   H3        1.0  0.2492594167892171  0.31005214524585717  0.16846170246769365  1.0000
  H   H4        1.0  0.7507405830800311  0.8100521454009564  0.8315382982282834  1.0000
  H   H5        1.0  0.40348347067566814  0.23568589181751523  0.3061579223499886  1.0000
  H   H6        1.0  0.5965165291903887  0.7356858919726145  0.6938420765907578  1.0000
  H   H7        1.0  0.26038238830622285  0.29538360563040883  0.7658863304526495  1.0000
  H   H8        1.0  0.7396176115630254  0.7953836057855079  0.23411367024332758  1.0000
  H   H9        1.0  0.2884595681062846  0.16319543272969578  0.8896821691585179  1.0000
  H   H10       1.0  0.7115404317597722  0.6631954328847949  0.11031782978222858  1.0000
  H   H11       1.0  0.7082467855524602  0.24397482236495038  0.04487217755503477  1.0000
  H   H12       1.0  0.2917532143167879  0.7439748225200494  0.9551278231409424  1.0000
  H   H13       1.0  0.9421365834354881  0.5034640115917256  0.7029910614400829  1.0000
  H   H14       1.0  0.057863416433760036  0.003464011436626423  0.2970089392558941  1.0000
  H   H15       1.0  0.9365063849296642  0.39855046643589775  0.8847845655415608  1.0000
  H   H16       1.0  0.0634936160717776  0.8985504665909969  0.1152154358067772  1.0000
  H   H17       1.0  0.9403028579367751  0.37453258380807364  0.6004008861121419  1.0000
  H   H18       1.0  0.05969714192928154  0.8745325839631728  0.39959911282860444  1.0000
  H   H19       1.0  0.6875483555150784  0.48517913760561243  0.7012637397207959  1.0000
  H   H20       1.0  0.3124516443509784  0.9851791377607115  0.2987362592199505  1.0000
  H   H21       1.0  0.6865227887946549  0.35041329187365244  0.6044925747921202  1.0000
  H   H22       1.0  0.3134772110714019  0.8504132920287516  0.3955074241486262  1.0000
  H   H23       1.0  0.4896137535655737  0.49576641141284256  0.9559959895449739  1.0000
  H   H24       1.0  0.5103862463036746  0.9957664115679417  0.044004011151003226  1.0000
  H   H25       1.0  0.03679486990615412  0.4995586235463005  0.29956837383997054  1.0000
  H   H26       1.0  0.9632051299630942  0.9995586229007324  0.7004316268560067  1.0000
  H   H27       1.0  0.04334772655540713  0.6005663098643816  0.10917714811072227  1.0000
  H   H28       1.0  0.9566522733106497  0.10056630970928253  0.8908228508300242  1.0000
  H   H29       1.0  0.04613721168118687  0.6295078971231528  0.39634921122972416  1.0000
  H   H30       1.0  0.9538627881880613  0.1295078969680537  0.6036507894662531  1.0000
  H   H31       1.0  0.2927561884591507  0.5188765936340302  0.27650538372122263  1.0000
  H   H32       1.0  0.7072438114100975  0.01887659347893102  0.7234946169747545  1.0000
  H   H33       1.0  0.2985392023521972  0.64817898815239  0.39910679303688745  1.0000
  H   H34       1.0  0.7014607975138596  0.14817898879795807  0.6008932059038591  1.0000
  C   C1        1.0  0.4876787448545408  0.23776167681463364  0.8689193910447628  1.0000
  C   C2        1.0  0.5123212561437097  0.7377616769697328  0.13108060854834475  1.0000
  C   C3        1.0  0.3379910746838622  0.24405375293952752  0.9100052249238952  1.0000
  C   C4        1.0  0.662008925185386  0.7440537530946267  0.08999477577208188  1.0000
  C   C5        1.0  0.6816221368628766  0.4679093062767852  0.32239209136685026  1.0000
  C   C6        1.0  0.3183778630063715  0.9679093056312171  0.6776079093291268  1.0000
  C   C7        1.0  0.7314975756355471  0.4304181921099219  0.5928113889795712  1.0000
  C   C8        1.0  0.2685024242305098  0.930418192265021  0.40718860996117523  1.0000
  C   C9        1.0  0.3037070399223473  0.5238496882227112  0.6610156313475258  1.0000
  C   C10       1.0  0.696292959946901  0.023849688868279185  0.33898436934845133  1.0000
  C   C11       1.0  0.25062518907892994  0.5680880354066791  0.3971874540499094  1.0000
  C   C12       1.0  0.7493748107903182  0.0680880352515799  0.6028125466460678  1.0000
  N   N1        1.0  0.3549451020372843  0.2881367450627195  0.15952152782730197  1.0000
  N   N2        1.0  0.6450548989609662  0.7881367452178186  0.8404784717658053  1.0000
  N   N3        1.0  0.898782271047007  0.4273341917448474  0.7028308444157886  1.0000
  N   N4        1.0  0.10121772882224121  0.9273341910992793  0.2971691562801885  1.0000
  N   N5        1.0  0.08363996721924417  0.5737346528567172  0.2937733317082041  1.0000
  N   N6        1.0  0.916360032650004  0.07373465270161805  0.7062266689877729  1.0000
  O   O1        1.0  0.8516316478051305  0.25044003636943274  0.0060621404383361  1.0000
  O   O2        1.0  0.14836835319631145  0.7504400365245318  0.9939378609100018  1.0000
  O   O3        1.0  0.9702254906408924  0.2507076778009016  0.46452721326487  1.0000
  O   O4        1.0  0.02977450922516439  0.7507076779560007  0.5354727856758764  1.0000
  O   O5        1.0  0.08482200773245505  0.3471267811522611  0.20473006264117907  1.0000
  O   O6        1.0  0.9151779921367932  0.8471267813073602  0.7952699380547981  1.0000
  O   O7        1.0  0.08381762751103179  0.15132302158936872  0.2051056092483826  1.0000
  O   O8        1.0  0.9161823723582163  0.6513230217444678  0.7948943914475944  1.0000
  O   O9        1.0  0.6056718101221336  0.24289958554655122  0.07810084855816096  1.0000
  O   O10       1.0  0.39432818974711464  0.7428995857016504  0.9218991521378161  1.0000
  O   O11       1.0  0.49475772368591153  0.2281882446638691  0.6578720127065775  1.0000
  O   O12       1.0  0.5052422761833367  0.728188244018301  0.34212798798939964  1.0000
  O   O13       1.0  0.7775719884834819  0.4970674355847904  0.23036246598327198  1.0000
  O   O14       1.0  0.2224280113857664  0.9970674357398895  0.7696375347127052  1.0000
  O   O15       1.0  0.5363426738609234  0.46774401173322044  0.20752976562879993  1.0000
  O   O16       1.0  0.4636573260083249  0.9677440110876523  0.7924702350671772  1.0000
  O   O17       1.0  0.2143981981083413  0.49767218913917743  0.7666664697028501  1.0000
  O   O18       1.0  0.7856018017577155  0.9976721884936094  0.2333335292378963  1.0000
  O   O19       1.0  0.45195576260185844  0.5179900460545079  0.7593189448703676  1.0000
  O   O20       1.0  0.5480442372641984  0.017990046700076014  0.240681054070379  1.0000
  S   S1        1.0  0.9982941204523913  0.24871096429578993  0.22369050970995988  1.0000
  S   S2        1.0  0.0017058794168569754  0.748710964450889  0.7763094909860174  1.0000
