data_image0
_chemical_formula_structural       H48C48N4O12
_chemical_formula_sum              "H48 C48 N4 O12"
_cell_length_a       12.689482969802055
_cell_length_b       11.070947303230104
_cell_length_c       8.549075751322102
_cell_angle_alpha    90.0
_cell_angle_beta     120.17009494486567
_cell_angle_gamma    90.0

_space_group_name_H-M_alt    "P 1"
_space_group_IT_number       1

loop_
  _space_group_symop_operation_xyz
  'x, y, z'

loop_
  _atom_site_type_symbol
  _atom_site_label
  _atom_site_symmetry_multiplicity
  _atom_site_fract_x
  _atom_site_fract_y
  _atom_site_fract_z
  _atom_site_occupancy
  H   H1        1.0  0.8756363834236278  0.18622080690407472  0.9752521911248715  1.0000
  H   H2        1.0  0.3756363839943947  0.6862208067581926  0.9752521906672611  1.0000
  H   H3        1.0  0.12436361589243611  0.18622080690407472  0.524747808787802  1.0000
  H   H4        1.0  0.624363616235659  0.6862208067581926  0.5247478087606635  1.0000
  H   H5        1.0  0.1243636157407236  0.8137791928041612  0.02474780873269198  1.0000
  H   H6        1.0  0.6243636160839464  0.31377919295004325  0.024747808705553546  1.0000
  H   H7        1.0  0.8756363841834451  0.8137791928041612  0.47525219175289035  1.0000
  H   H8        1.0  0.37563638384268216  0.31377919295004325  0.4752521906121509  1.0000
  H   H9        1.0  0.8642808020867621  0.41474021727665034  0.9613427450425026  1.0000
  H   H10       1.0  0.36428080265506885  0.9147402171307683  0.9613427457527697  1.0000
  H   H11       1.0  0.1357191972317619  0.41474021727665034  0.5386572537022932  1.0000
  H   H12       1.0  0.6357191975725248  0.9147402171307683  0.5386572548430326  1.0000
  H   H13       1.0  0.13571919799157903  0.5852597833348506  0.038657254330311926  1.0000
  H   H14       1.0  0.6357191974208123  0.0852597825774676  0.03865725478792257  1.0000
  H   H15       1.0  0.8642808028465792  0.5852597833348506  0.4613427456705213  1.0000
  H   H16       1.0  0.3642808025033563  0.0852597825774676  0.46134274569765965  1.0000
  H   H17       1.0  0.9399607351423029  0.6132938450550656  0.12818812576103625  1.0000
  H   H18       1.0  0.4399607348015399  0.11329384429768255  0.12818812462029686  1.0000
  H   H19       1.0  0.060039264781865775  0.6132938450550656  0.3718118747245461  1.0000
  H   H20       1.0  0.5600392651250886  0.11329384429768255  0.3718118746974077  1.0000
  H   H21       1.0  0.060039264933578314  0.38670615555643545  0.8718118747796562  1.0000
  H   H22       1.0  0.5600392652768011  0.8867061554105533  0.8718118747525176  1.0000
  H   H23       1.0  0.9399607352940155  0.38670615555643545  0.6281881258161464  1.0000
  H   H24       1.0  0.43996073495325244  0.8867061554105533  0.6281881246754067  1.0000
  H   H25       1.0  0.8835025407527072  0.9915951859690493  0.23906158907440186  1.0000
  H   H26       1.0  0.3835025413234739  0.4915951861149313  0.23906158861679117  1.0000
  H   H27       1.0  0.11649745917146145  0.9915951859690493  0.2609384114111804  1.0000
  H   H28       1.0  0.6164974586031546  0.4915951861149313  0.26093841070091334  1.0000
  H   H29       1.0  0.11649745932317396  0.008404814642451741  0.7609384114662905  1.0000
  H   H30       1.0  0.6164974587548672  0.5084048144965697  0.7609384107560234  1.0000
  H   H31       1.0  0.8835025409044197  0.008404814642451741  0.7390615891295118  1.0000
  H   H32       1.0  0.3835025405636568  0.5084048144965697  0.7390615879887725  1.0000
  H   H33       1.0  0.8841266669293963  0.910103128849712  0.9903440892180274  1.0000
  H   H34       1.0  0.38412666749770313  0.4101031289955941  0.9903440899282945  1.0000
  H   H35       1.0  0.11587333329819736  0.910103128849712  0.5096559113777749  1.0000
  H   H36       1.0  0.6158733327298906  0.4101031289955941  0.5096559106675078  1.0000
  H   H37       1.0  0.11587333314648483  0.08989687085852388  0.009655911322664919  1.0000
  H   H38       1.0  0.6158733325781781  0.5898968707126419  0.00965591061239783  1.0000
  H   H39       1.0  0.8841266667776839  0.08989687085852388  0.49034408916291744  1.0000
  H   H40       1.0  0.38412666734599066  0.5898968707126419  0.4903440898731845  1.0000
  H   H41       1.0  0.6828295777942872  0.7638519169477646  0.22597520854138708  1.0000
  H   H42       1.0  0.18282957745352427  0.2638519170936466  0.2259752074006477  1.0000
  H   H43       1.0  0.31717042304141113  0.7638519169477646  0.27402479262732393  1.0000
  H   H44       1.0  0.8171704224731045  0.2638519170936466  0.27402479191705686  1.0000
  H   H45       1.0  0.31717042228159403  0.23614808366373644  0.7740247919993052  1.0000
  H   H46       1.0  0.817170422624817  0.7361480835178543  0.7740247919721669  1.0000
  H   H47       1.0  0.6828295770344701  0.23614808366373644  0.7259752079133684  1.0000
  H   H48       1.0  0.18282957760523677  0.7361480835178543  0.7259752074557578  1.0000
  C   C1        1.0  0.9273275568685346  0.2448984459720942  0.09155824477258045  1.0000
  C   C2        1.0  0.42732755652531185  0.7448984458262121  0.09155824479971882  1.0000
  C   C3        1.0  0.07267244305809385  0.2448984459720942  0.40844175454512405  1.0000
  C   C4        1.0  0.5726724434013166  0.7448984458262121  0.40844175451798564  1.0000
  C   C5        1.0  0.07267244320980638  0.7551015546394068  0.908441754600234  1.0000
  C   C6        1.0  0.5726724435530292  0.2551015538820237  0.9084417545730956  1.0000
  C   C7        1.0  0.9273275570177874  0.7551015546394068  0.5915582459955683  1.0000
  C   C8        1.0  0.4273275566770244  0.2551015538820237  0.5915582448548288  1.0000
  C   C9        1.0  0.9248177387819057  0.36870053286307836  0.08834169417470851  1.0000
  C   C10       1.0  0.4248177384411428  0.8687005327171963  0.08834169303396913  1.0000
  C   C11       1.0  0.07518226114226297  0.36870053286307836  0.41165830631087375  1.0000
  C   C12       1.0  0.5751822614854858  0.8687005327171963  0.41165830628373534  1.0000
  C   C13       1.0  0.07518226129397548  0.6312994668451576  0.9116583063659839  1.0000
  C   C14       1.0  0.5751822616371983  0.1312994669910396  0.9116583063388454  1.0000
  C   C15       1.0  0.9248177389336182  0.6312994668451576  0.5883416942298186  1.0000
  C   C16       1.0  0.4248177385903954  0.1312994669910396  0.5883416942569569  1.0000
  C   C17       1.0  0.9999999996188615  0.4375679404224614  0.2500000002699295  1.0000
  C   C18       1.0  0.49999999996208433  0.9375679402765793  0.2500000002427912  1.0000
  C   C19       1.0  0.999999999770574  0.5624320592857746  0.7500000003250396  1.0000
  C   C20       1.0  0.5000000001137969  0.06243205943165658  0.7500000002979011  1.0000
  C   C21       1.0  0.9999999996188615  0.5625099026695787  0.2500000002699295  1.0000
  C   C22       1.0  0.49999999996208433  0.06250990281546065  0.2500000002427912  1.0000
  C   C23       1.0  0.999999999770574  0.4374900970386573  0.7500000003250396  1.0000
  C   C24       1.0  0.5000000001137969  0.9374900977960402  0.7500000002979011  1.0000
  C   C25       1.0  0.787589386363617  0.8471005671993197  0.12207632399296112  1.0000
  C   C26       1.0  0.2875893869319237  0.34710056734520167  0.12207632470322823  1.0000
  C   C27       1.0  0.21241061356055174  0.8471005671993197  0.3779236764926212  1.0000
  C   C28       1.0  0.712410612992245  0.34710056734520167  0.37792367578235414  1.0000
  C   C29       1.0  0.21241061371226425  0.15289943250891627  0.8779236765477313  1.0000
  C   C30       1.0  0.7124106131439575  0.6528994323630343  0.8779236758374642  1.0000
  C   C31       1.0  0.7875893865153295  0.15289943250891627  0.6220763240480712  1.0000
  C   C32       1.0  0.2875893861721066  0.6528994323630343  0.6220763240752095  1.0000
  C   C33       1.0  0.8260387046003134  0.839581797782387  0.994845163135782  1.0000
  C   C34       1.0  0.32603870425709064  0.3395817970250039  0.9948451631629205  1.0000
  C   C35       1.0  0.17396129562728024  0.839581797782387  0.5051548374600204  1.0000
  C   C36       1.0  0.6739612950589735  0.3395817970250039  0.5051548367497533  1.0000
  C   C37       1.0  0.17396129547556774  0.16041820282911404  0.005154837404910415  1.0000
  C   C38       1.0  0.6739612958187905  0.6604182026832319  0.005154837377772009  1.0000
  C   C39       1.0  0.8260387044486008  0.16041820282911404  0.494845163080672  1.0000
  C   C40       1.0  0.3260387041053781  0.6604182026832319  0.4948451631078103  1.0000
  C   C41       1.0  0.7120075862890537  0.756664363089859  0.12647374245209023  1.0000
  C   C42       1.0  0.21200758594583086  0.2566643632357411  0.12647374247922857  1.0000
  C   C43       1.0  0.28799241363511496  0.756664363089859  0.37352625803349215  1.0000
  C   C44       1.0  0.7879924139783379  0.2566643632357411  0.3735262580063538  1.0000
  C   C45       1.0  0.2879924137868275  0.24333563661837684  0.8735262580886022  1.0000
  C   C46       1.0  0.7879924141300504  0.7433356373757599  0.8735262580614638  1.0000
  C   C47       1.0  0.7120075864407662  0.24333563661837684  0.6264737425072002  1.0000
  C   C48       1.0  0.2120075860975434  0.7433356373757599  0.6264737425343386  1.0000
  N   N1        1.0  0.9999999996188615  0.18417786248563264  0.2500000002699295  1.0000
  N   N2        1.0  0.49999999996208433  0.6841778623397505  0.2500000002427912  1.0000
  N   N3        1.0  0.999999999770574  0.8158221372226032  0.7500000003250396  1.0000
  N   N4        1.0  0.5000000001137969  0.3158221373684853  0.7500000002979011  1.0000
  O   O1        1.0  0.9999999996188615  0.06415860816108852  0.2500000002699295  1.0000
  O   O2        1.0  0.49999999996208433  0.5641586080152065  0.2500000002427912  1.0000
  O   O3        1.0  0.999999999770574  0.9358413915471473  0.7500000003250396  1.0000
  O   O4        1.0  0.5000000001137969  0.4358413916930294  0.7500000002979011  1.0000
  O   O5        1.0  0.8187075705267323  0.9408898420969656  0.24172041556979787  1.0000
  O   O6        1.0  0.3187075701859694  0.44088984224284755  0.24172041442905848  1.0000
  O   O7        1.0  0.18129242939743634  0.9408898420969656  0.25827958491578445  1.0000
  O   O8        1.0  0.6812924297406592  0.44088984224284755  0.2582795848886461  1.0000
  O   O9        1.0  0.18129242954914887  0.05911015761127036  0.7582795849708945  1.0000
  O   O10       1.0  0.6812924298923717  0.5591101574653883  0.7582795849437561  1.0000
  O   O11       1.0  0.8187075706784448  0.05911015761127036  0.741720415624908  1.0000
  O   O12       1.0  0.31870757033768193  0.5591101574653883  0.7417204144841684  1.0000
