data_image0
_chemical_formula_structural       H112C112N24O16
_chemical_formula_sum              "H112 C112 N24 O16"
_cell_length_a       49.08380004348956
_cell_length_b       5.008743088263778
_cell_length_c       9.617906166717269
_cell_angle_alpha    90.0
_cell_angle_beta     98.75170883227761
_cell_angle_gamma    90.0

_space_group_name_H-M_alt    "P 1"
_space_group_IT_number       1

loop_
  _space_group_symop_operation_xyz
  'x, y, z'

loop_
  _atom_site_type_symbol
  _atom_site_label
  _atom_site_symmetry_multiplicity
  _atom_site_fract_x
  _atom_site_fract_y
  _atom_site_fract_z
  _atom_site_occupancy
  H   H1        1.0  0.5949748851861711  0.7147847148297289  0.08264287521163932  1.0000
  H   H2        1.0  0.5949748852230092  0.2852152835204006  0.5826428746848858  1.0000
  H   H3        1.0  0.09497488526953875  0.2147847156546642  0.08264287481888817  1.0000
  H   H4        1.0  0.09497488510156041  0.7852152846919742  0.5826428751794234  1.0000
  H   H5        1.0  0.49672374414744674  0.9851236254384118  0.6645478633967165  1.0000
  H   H6        1.0  0.4967237441092961  0.014876374908226466  0.16454786288274434  1.0000
  H   H7        1.0  0.9967237440627665  0.48512362626334715  0.6645478627487419  1.0000
  H   H8        1.0  0.9967237440259284  0.5148763740832912  0.1645478632754955  1.0000
  H   H9        1.0  0.46496201780019397  0.11713276757490243  0.4913906026918493  1.0000
  H   H10       1.0  0.464962017837032  0.8828672307752271  0.9913906021650959  1.0000
  H   H11       1.0  0.9649620177155137  0.617132768746476  0.4913906020438748  1.0000
  H   H12       1.0  0.9649620177536644  0.38286723160016234  0.9913906025578471  1.0000
  H   H13       1.0  0.49134807251605556  0.2742178158864409  0.4406958764454728  1.0000
  H   H14       1.0  0.49134807255289353  0.7257821844601975  0.9406958759187193  1.0000
  H   H15       1.0  0.9913480726375044  0.7742178170580145  0.44069587595093523  1.0000
  H   H16       1.0  0.9913480724695259  0.22578218328862384  0.9406958763114703  1.0000
  H   H17       1.0  0.638180909310427  0.4907543263218275  0.9531473860964766  1.0000
  H   H18       1.0  0.6381809092722763  0.5092456740248109  0.4531473855825045  1.0000
  H   H19       1.0  0.13818090939379463  0.9907543254968922  0.9531473857037256  1.0000
  H   H20       1.0  0.1381809093569566  0.009245674849746097  0.4531473862304789  1.0000
  H   H21       1.0  0.6467701816607722  0.1203004445190796  0.79127129580054  1.0000
  H   H22       1.0  0.6467701816239342  0.8796995558275588  0.29127129632729354  1.0000
  H   H23       1.0  0.14677018174545248  0.6203004436941444  0.7912712964485145  1.0000
  H   H24       1.0  0.1467701817073018  0.379699556652494  0.2912712959345424  1.0000
  H   H25       1.0  0.6088716395401519  0.8215896218838531  0.6874965416173698  1.0000
  H   H26       1.0  0.6088716397094429  0.1784103784627852  0.18749654229756008  1.0000
  H   H27       1.0  0.10887163962483219  0.32158962270878844  0.6874965422653443  1.0000
  H   H28       1.0  0.10887163958668152  0.67841037763785  0.18749654175137218  1.0000
  H   H29       1.0  0.5611358031911712  0.8880391909942887  0.734840898637153  1.0000
  H   H30       1.0  0.5611358033591495  0.1119608093523497  0.2348408982766176  1.0000
  H   H31       1.0  0.06113580327453877  0.38803918982271507  0.7348408982444018  1.0000
  H   H32       1.0  0.06113580323770075  0.6119608085274144  0.2348408987711553  1.0000
  H   H33       1.0  0.5446240353932185  0.6558848062496179  0.07640246965675697  1.0000
  H   H34       1.0  0.5446240352252402  0.34411519409702057  0.5764024700172922  1.0000
  H   H35       1.0  0.04462403527176969  0.1558848050780442  0.07640247015129455  1.0000
  H   H36       1.0  0.044624035308607715  0.8441151952685941  0.576402469624541  1.0000
  H   H37       1.0  0.5070587062147766  0.2707516329151722  0.9682245497543239  1.0000
  H   H38       1.0  0.5070587063840676  0.7292483674314661  0.4682245504345142  1.0000
  H   H39       1.0  0.007058706299456841  0.7707516340867459  0.9682245504022984  1.0000
  H   H40       1.0  0.007058706261306152  0.2292483662598926  0.4682245498883263  1.0000
  H   H41       1.0  0.519231021716281  0.008437504031505314  0.8692068878506131  1.0000
  H   H42       1.0  0.5192310216781303  0.9915624963151332  0.36920688733664114  1.0000
  H   H43       1.0  0.01923102179964859  0.5084375032065701  0.8692068874578619  1.0000
  H   H44       1.0  0.019231021761497904  0.49156249714006833  0.3692068869438899  1.0000
  H   H45       1.0  0.34821143774857377  0.025281648063904708  0.23463295488454536  1.0000
  H   H46       1.0  0.34821143778541186  0.9747183502862248  0.734632954357792  1.0000
  H   H47       1.0  0.8482114376638935  0.5252816492354784  0.2346329542365709  1.0000
  H   H48       1.0  0.8482114377020442  0.4747183511111601  0.734632954750543  1.0000
  H   H49       1.0  0.46275691242969635  0.5699935132807212  0.4951216857140549  1.0000
  H   H50       1.0  0.46275691246784706  0.4300064850694083  0.9951216862280269  1.0000
  H   H51       1.0  0.9627569123463288  0.06999351410565645  0.4951216861068059  1.0000
  H   H52       1.0  0.9627569123831669  0.9300064862409819  0.9951216855800524  1.0000
  H   H53       1.0  0.26499668702650125  0.6178939137948082  0.6493412475986016  1.0000
  H   H54       1.0  0.2649966869883506  0.38210608655183015  0.1493412470846295  1.0000
  H   H55       1.0  0.764996686941821  0.11789391262323459  0.6493412469506271  1.0000
  H   H56       1.0  0.764996686904983  0.882106085726895  0.14934124747738065  1.0000
  H   H57       1.0  0.3017243208451586  0.604674655223702  0.01935935544185706  1.0000
  H   H58       1.0  0.30172432088330925  0.3953253451229364  0.5193593559558292  1.0000
  H   H59       1.0  0.8017243209679199  0.10467465405212838  0.019359355988044915  1.0000
  H   H60       1.0  0.801724320798629  0.89532534629451  0.5193593553078547  1.0000
  H   H61       1.0  0.20659687533317486  0.6749400638897305  0.5329119763139711  1.0000
  H   H62       1.0  0.20659687529502413  0.3250599364569079  0.03291197579999905  1.0000
  H   H63       1.0  0.7065968752484946  0.17494006271815687  0.5329119756659967  1.0000
  H   H64       1.0  0.7065968752116566  0.8250599356319726  0.032911976192750124  1.0000
  H   H65       1.0  0.16121643389292778  0.47146977962061465  0.5504324763362106  1.0000
  H   H66       1.0  0.1612164338547771  0.5285302207260237  0.05043247582223857  1.0000
  H   H67       1.0  0.6612164338082476  0.9714697787956794  0.5504324756882363  1.0000
  H   H68       1.0  0.6612164339775387  0.028530219554450096  0.05043247636842652  1.0000
  H   H69       1.0  0.15693464796279913  0.09807846426602927  0.714318641827764  1.0000
  H   H70       1.0  0.15693464813209015  0.9019215360806091  0.2143186425079542  1.0000
  H   H71       1.0  0.6569346480855606  0.5980784634410939  0.7143186423739518  1.0000
  H   H72       1.0  0.6569346480474099  0.40192153690554433  0.2143186418599798  1.0000
  H   H73       1.0  0.19806461872510708  0.9161840384172508  0.8677672743170102  1.0000
  H   H74       1.0  0.19806461889308544  0.0838159619293876  0.36776727395647496  1.0000
  H   H75       1.0  0.6980646188465558  0.41618403924218605  0.8677672738224727  1.0000
  H   H76       1.0  0.6980646188097178  0.5838159611044523  0.3677672743492262  1.0000
  H   H77       1.0  0.2928918148552446  0.3407166528462453  0.82594249239686  1.0000
  H   H78       1.0  0.29289181502453565  0.6592833475003931  0.32594249307705025  1.0000
  H   H79       1.0  0.792891814978006  0.8407166520213101  0.825942492943048  1.0000
  H   H80       1.0  0.7928918149398555  0.1592833483253283  0.3259424924290759  1.0000
  H   H81       1.0  0.259382349663775  0.7377597223260487  0.9333864835339778  1.0000
  H   H82       1.0  0.25938234962562434  0.2622402780205897  0.43338648302000565  1.0000
  H   H83       1.0  0.7593823495804073  0.23775972315098393  0.9333864839267287  1.0000
  H   H84       1.0  0.7593823495422567  0.7622402771956545  0.4333864834127569  1.0000
  H   H85       1.0  0.24758974980020948  0.9590795325989011  0.05335625164527765  1.0000
  H   H86       1.0  0.2475897498370475  0.0409204677477373  0.5533562511185242  1.0000
  H   H87       1.0  0.7475897497155292  0.45907953342383634  0.05335625099730324  1.0000
  H   H88       1.0  0.7475897497536799  0.540920466922802  0.5533562515112753  1.0000
  H   H89       1.0  0.3342457848464039  0.515095369144661  0.8942658980049463  1.0000
  H   H90       1.0  0.33424578480825323  0.4849046312019773  0.39426589749097424  1.0000
  H   H91       1.0  0.8342457849678527  0.015095367973087418  0.8942658975104087  1.0000
  H   H92       1.0  0.8342457849310146  0.984904632373551  0.3942658980371622  1.0000
  H   H93       1.0  0.34603699068243277  0.2647608964227558  0.021136227715790837  1.0000
  H   H94       1.0  0.3460369905144544  0.7352391039238826  0.5211362280763261  1.0000
  H   H95       1.0  0.8460369905990652  0.7647608975943294  0.021136228108541866  1.0000
  H   H96       1.0  0.8460369906359032  0.23523910275230894  0.5211362275817885  1.0000
  H   H97       1.0  0.36956288582716906  0.4407346476149994  0.9316857950874461  1.0000
  H   H98       1.0  0.369562885790331  0.5592653527316389  0.4316857956141995  1.0000
  H   H99       1.0  0.8695628857438015  0.9407346467900641  0.931685795480197  1.0000
  H   H100      1.0  0.8695628859117797  0.059265351560065314  0.4316857951196619  1.0000
  H   H101      1.0  0.4117555265513097  0.07347897935958538  0.46274648179567546  1.0000
  H   H102      1.0  0.4117555265881478  0.926521020987053  0.9627464812689219  1.0000
  H   H103      1.0  0.9117555264666295  0.573478980531159  0.46274648114770106  1.0000
  H   H104      1.0  0.9117555265047801  0.42652101981547935  0.962746481661673  1.0000
  H   H105      1.0  0.4444993034299037  0.40307604012084186  0.25692987684317004  1.0000
  H   H106      1.0  0.4444993034680544  0.5969239602257965  0.7569298773571421  1.0000
  H   H107      1.0  0.9444993035526651  0.9030760412924155  0.2569298773893579  1.0000
  H   H108      1.0  0.9444993033833742  0.09692395905422284  0.7569298767091678  1.0000
  H   H109      1.0  0.40118960375570395  0.37249559562591483  0.09376757385234716  1.0000
  H   H110      1.0  0.401189603792542  0.6275044047207236  0.5937675733255936  1.0000
  H   H111      1.0  0.9011896036710237  0.8724955948009796  0.09376757320437282  1.0000
  H   H112      1.0  0.9011896037091743  0.12750440554565878  0.5937675737183448  1.0000
  C   C1        1.0  0.594605932558583  0.3951747744135368  0.933865759848195  1.0000
  C   C2        1.0  0.594605932521745  0.6048252259331015  0.4338657603749483  1.0000
  C   C3        1.0  0.0946059326432633  0.8951747735886015  0.9338657604961693  1.0000
  C   C4        1.0  0.0946059326051126  0.10482522476152793  0.43386575998219723  1.0000
  C   C5        1.0  0.6214757204846945  0.36145388136239276  0.905548737597027  1.0000
  C   C6        1.0  0.6214757206526728  0.6385461189842456  0.40554873723649165  1.0000
  C   C7        1.0  0.12147572056806197  0.8614538825339664  0.9055487372042758  1.0000
  C   C8        1.0  0.12147572053122396  0.13854611781267204  0.40554873773102934  1.0000
  C   C9        1.0  0.6260584078978361  0.15496264957543465  0.8150024375559946  1.0000
  C   C10       1.0  0.6260584078596855  0.8450373507712037  0.3150024370420225  1.0000
  C   C11       1.0  0.1260584077750747  0.6549626487504995  0.8150024370098067  1.0000
  C   C12       1.0  0.1260584077382367  0.3450373495996301  0.31500243753656015  1.0000
  C   C13       1.0  0.6044001021203067  0.9856431210392338  0.754814138283733  1.0000
  C   C14       1.0  0.6044001020834687  0.014356879307404593  0.2548141388104864  1.0000
  C   C15       1.0  0.10440010199754533  0.4856431218641691  0.7548141377375451  1.0000
  C   C16       1.0  0.10440010196070731  0.5143568784824694  0.25481413826429855  1.0000
  C   C17       1.0  0.5775103152317856  0.022490674409704814  0.7812566765250684  1.0000
  C   C18       1.0  0.577510315193635  0.9775093259369335  0.28125667601109633  1.0000
  C   C19       1.0  0.07751031531515329  0.5224906735847695  0.7812566761323172  1.0000
  C   C20       1.0  0.07751031527831528  0.4775093247653599  0.28125667665907067  1.0000
  C   C21       1.0  0.5721646402550872  0.23170571729249798  0.870713467892745  1.0000
  C   C22       1.0  0.5721646402182491  0.7682942830541404  0.3707134684194984  1.0000
  C   C23       1.0  0.07216464013232568  0.7317057164675628  0.8707134673465571  1.0000
  C   C24       1.0  0.0721646403016167  0.26829428188256677  0.3707134680267473  1.0000
  C   C25       1.0  0.5478901927037377  0.32704468788552343  0.9222507004808408  1.0000
  C   C26       1.0  0.547890192665587  0.672955312461115  0.4222506999668687  1.0000
  C   C27       1.0  0.04789019258097623  0.8270446890570972  0.9222506999346529  1.0000
  C   C28       1.0  0.04789019274895459  0.17295531128954128  0.4222506995741175  1.0000
  C   C29       1.0  0.5563293251000991  0.5339591396226058  0.01359438530827106  1.0000
  C   C30       1.0  0.5563293251369372  0.46604086072403256  0.5135943847815175  1.0000
  C   C31       1.0  0.05632932518346674  0.03395913845103216  0.01359438491551992  1.0000
  C   C32       1.0  0.05632932501548838  0.9660408598990974  0.5135943852760552  1.0000
  C   C33       1.0  0.5190809371425609  0.22631322470023713  0.8832967662494496  1.0000
  C   C34       1.0  0.5190809371057229  0.7736867736498924  0.38329676677620317  1.0000
  C   C35       1.0  0.019080937019799456  0.7263132258718107  0.8832967657032618  1.0000
  C   C36       1.0  0.019080937189090482  0.27368677447482764  0.383296766383452  1.0000
  C   C37       1.0  0.5037581369600374  0.3592191450617373  0.7509852327034006  1.0000
  C   C38       1.0  0.5037581369218866  0.640780855284901  0.2509852321894284  1.0000
  C   C39       1.0  0.003758136837275935  0.859219144236802  0.7509852321572126  1.0000
  C   C40       1.0  0.0037581368004379156  0.14078085411332744  0.25098523268396605  1.0000
  C   C41       1.0  0.2281160986771876  0.4106649360434667  0.6927110833613781  1.0000
  C   C42       1.0  0.2281160986390369  0.5893350643031716  0.1927110828474061  1.0000
  C   C43       1.0  0.7281160985925074  0.9106649372150404  0.6927110827134038  1.0000
  C   C44       1.0  0.7281160985556693  0.08933506313159806  0.19271108324015726  1.0000
  C   C45       1.0  0.204987027579323  0.5124371293896219  0.6061933373372155  1.0000
  C   C46       1.0  0.20498702754117226  0.4875628689605075  0.10619333682324346  1.0000
  C   C47       1.0  0.7049870274946427  0.012437130214557206  0.6061933366892411  1.0000
  C   C48       1.0  0.7049870274578047  0.9875628701320812  0.10619333721599448  1.0000
  C   C49       1.0  0.1796226380808153  0.3967539630164687  0.6166299128013696  1.0000
  C   C50       1.0  0.17962263825010635  0.6032460373301697  0.11662991348155986  1.0000
  C   C51       1.0  0.6796226382035768  0.8967539641880423  0.6166299133475577  1.0000
  C   C52       1.0  0.6796226381654261  0.10324603615859604  0.11662991283358541  1.0000
  C   C53       1.0  0.17719572454727114  0.18438333404721113  0.7104303560276058  1.0000
  C   C54       1.0  0.17719572450912047  0.8156166662994273  0.2104303555136338  1.0000
  C   C55       1.0  0.6771957244639035  0.684383333222276  0.710430356420357  1.0000
  C   C56       1.0  0.6771957244257529  0.31561666512785364  0.21043035590638492  1.0000
  C   C57       1.0  0.2001260546274122  0.08238361256077845  0.7967039557448192  1.0000
  C   C58       1.0  0.20012605459057414  0.91761638778586  0.29670395627157264  1.0000
  C   C59       1.0  0.7001260545440446  0.582383613732352  0.7967039561375703  1.0000
  C   C60       1.0  0.7001260545058938  0.41761638661428624  0.2967039556235982  1.0000
  C   C61       1.0  0.2260903807212124  0.19594367942321472  0.7889740306893795  1.0000
  C   C62       1.0  0.22609038068306173  0.8040563189269149  0.2889740301754075  1.0000
  C   C63       1.0  0.7260903806378449  0.6959436805947884  0.7889740310821308  1.0000
  C   C64       1.0  0.7260903805996941  0.30405631975185005  0.2889740305681586  1.0000
  C   C65       1.0  0.25350755017567644  0.14354987215949114  0.8596790321596383  1.0000
  C   C66       1.0  0.25350755013752574  0.8564501261906384  0.3596790316456661  1.0000
  C   C67       1.0  0.7535075500909962  0.6435498733310647  0.8596790315116638  1.0000
  C   C68       1.0  0.753507550054158  0.3564501270155736  0.3596790320384172  1.0000
  C   C69       1.0  0.27066703425373356  0.31941848519816607  0.8040764363870353  1.0000
  C   C70       1.0  0.2706670342168956  0.6805815131519634  0.30407643691378883  1.0000
  C   C71       1.0  0.770667034170366  0.8194184863697397  0.8040764367797865  1.0000
  C   C72       1.0  0.7706670343383443  0.18058151397689867  0.30407643641925114  1.0000
  C   C73       1.0  0.26150975997949827  0.9430989505268136  0.9739059422506944  1.0000
  C   C74       1.0  0.26150975994134756  0.05690104981982473  0.4739059417367223  1.0000
  C   C75       1.0  0.7615097601009471  0.4430989513517489  0.9739059417561567  1.0000
  C   C76       1.0  0.761509760064109  0.5569010489948895  0.4739059422829101  1.0000
  C   C77       1.0  0.2903103192497064  0.9952921565653807  0.04888080777209582  1.0000
  C   C78       1.0  0.29031031928785705  0.004707841784748808  0.5488808082860679  1.0000
  C   C79       1.0  0.7903103191663388  0.4952921573903159  0.048880808164847085  1.0000
  C   C80       1.0  0.7903103192031768  0.5047078429563224  0.5488808076380935  1.0000
  C   C81       1.0  0.3546771058423255  0.6677567827020201  0.09129873858260368  1.0000
  C   C82       1.0  0.35467710588047624  0.33224321764461834  0.5912987390965757  1.0000
  C   C83       1.0  0.854677105965087  0.16775678352695528  0.09129873912879154  1.0000
  C   C84       1.0  0.854677105795796  0.8322432168196832  0.5912987384486014  1.0000
  C   C85       1.0  0.35082962033764437  0.4599586601672937  0.9789830788164922  1.0000
  C   C86       1.0  0.35082962029949377  0.5400413401793447  0.47898307830251996  1.0000
  C   C87       1.0  0.8508296202529642  0.9599586593423585  0.9789830781685176  1.0000
  C   C88       1.0  0.8508296202161261  0.04004133900777104  0.478983078695271  1.0000
  C   C89       1.0  0.38129156913234774  0.7061308092018751  0.1794929342953411  1.0000
  C   C90       1.0  0.3812915691691858  0.2938691911447633  0.6794929337685877  1.0000
  C   C91       1.0  0.8812915692537965  0.20613080803030145  0.17949293380080347  1.0000
  C   C92       1.0  0.8812915692919472  0.793869190319828  0.6794929343147755  1.0000
  C   C93       1.0  0.38526139189365527  0.9104226628602539  0.2847527584623833  1.0000
  C   C94       1.0  0.38526139193049325  0.08957733548987559  0.7847527579356298  1.0000
  C   C95       1.0  0.885261391808975  0.41042266368518915  0.28475275781440884  1.0000
  C   C96       1.0  0.8852613918471257  0.5895773366614492  0.7847527583283809  1.0000
  C   C97       1.0  0.40986757840861626  0.9242093092869398  0.37931958641048585  1.0000
  C   C98       1.0  0.4098675782406379  0.07579069105969848  0.8793195867710212  1.0000
  C   C99       1.0  0.9098675783252486  0.4242093101118751  0.379319586803237  1.0000
  C   C100      1.0  0.9098675783620866  0.5757906902347633  0.8793195862764834  1.0000
  C   C101      1.0  0.4306456303771077  0.7366599014921738  0.3736697774716829  1.0000
  C   C102      1.0  0.43064563041394566  0.26334009685795584  0.8736697769449292  1.0000
  C   C103      1.0  0.9306456302924273  0.23665990231710893  0.3736697768237084  1.0000
  C   C104      1.0  0.9306456303305781  0.7633400980295294  0.8736697773376806  1.0000
  C   C105      1.0  0.42790557072216723  0.5431953470272934  0.26619798006521783  1.0000
  C   C106      1.0  0.42790557076031793  0.45680465331934494  0.7661979805791899  1.0000
  C   C107      1.0  0.9279055708449288  0.04319534785222868  0.26619798061140576  1.0000
  C   C108      1.0  0.9279055706769502  0.9568046524944097  0.766197980971941  1.0000
  C   C109      1.0  0.40347458601630554  0.5300310164082006  0.172695612002394  1.0000
  C   C110      1.0  0.40347458605314357  0.4699689819419288  0.6726956114756405  1.0000
  C   C111      1.0  0.9034745859316253  0.030031017233135938  0.1726956113544196  1.0000
  C   C112      1.0  0.9034745859697759  0.9699689831135024  0.6726956118683916  1.0000
  N   N1        1.0  0.5842078034415915  0.57345697700691  0.02084743792005126  1.0000
  N   N2        1.0  0.5842078034784295  0.42654302134321964  0.5208474373932978  1.0000
  N   N3        1.0  0.08420780352495912  0.07345697783184517  0.02084743752730013  1.0000
  N   N4        1.0  0.08420780335698075  0.9265430225147933  0.5208474378878355  1.0000
  N   N5        1.0  0.494667872875446  0.18669488802312356  0.6464842921615644  1.0000
  N   N6        1.0  0.4946678728386081  0.8133051123235149  0.14648429268831792  1.0000
  N   N7        1.0  0.9946678727920785  0.6866948871981883  0.6464842925543156  1.0000
  N   N8        1.0  0.9946678727539279  0.31330511314845005  0.1464842920403434  1.0000
  N   N9        1.0  0.47891412480983636  0.26946764611715307  0.5181769863091833  1.0000
  N   N10       1.0  0.47891412477168566  0.7305323542294853  0.01817698579521116  1.0000
  N   N11       1.0  0.978914124725156  0.7694676452922179  0.5181769856612088  1.0000
  N   N12       1.0  0.9789141248944471  0.23053235505442057  0.018176986341399016  1.0000
  N   N13       1.0  0.25551341364638985  0.4807964508386813  0.705275218187936  1.0000
  N   N14       1.0  0.2555134138143682  0.5192035475114483  0.20527521782740077  1.0000
  N   N15       1.0  0.7555134137678386  0.980796452010255  0.7052752176933985  1.0000
  N   N16       1.0  0.7555134137310007  0.019203548336383457  0.20527521822015182  1.0000
  N   N17       1.0  0.3086862402413836  0.7932934590536832  0.04707368036666555  1.0000
  N   N18       1.0  0.3086862402795343  0.2067065412929551  0.5470736808806376  1.0000
  N   N19       1.0  0.8086862401580159  0.29329345788210964  0.047073680759416724  1.0000
  N   N20       1.0  0.808686240194854  0.7067065424645288  0.5470736802326631  1.0000
  N   N21       1.0  0.3347659204997128  0.8239523304100159  0.1193816600488802  1.0000
  N   N22       1.0  0.3347659205365508  0.17604766993662235  0.6193816595221268  1.0000
  N   N23       1.0  0.8347659204150325  0.3239523312349513  0.1193816594009058  1.0000
  N   N24       1.0  0.8347659204531832  0.6760476691116871  0.6193816599148778  1.0000
  O   O1        1.0  0.500465174327899  0.6065847591822016  0.741835430473026  1.0000
  O   O2        1.0  0.500465174291061  0.3934152411644368  0.24183543099977947  1.0000
  O   O3        1.0  0.00046517441257927126  0.10658475801062794  0.7418354311210004  1.0000
  O   O4        1.0  0.0004651743744285821  0.8934152403395016  0.24183543060702833  1.0000
  O   O5        1.0  0.29700095712640245  0.21603870889993906  0.10495712008045426  1.0000
  O   O6        1.0  0.29700095716324043  0.7839612914466992  0.6049571195537008  1.0000
  O   O7        1.0  0.7970009570417222  0.7160387080750038  0.10495711943247991  1.0000
  O   O8        1.0  0.7970009570798728  0.2839612922716346  0.6049571199464518  1.0000
  O   O9        1.0  0.3653531108363885  0.0861247946637111  0.302006645231498  1.0000
  O   O10       1.0  0.3653531108745392  0.9138752056829272  0.8020066457454701  1.0000
  O   O11       1.0  0.8653531109591498  0.5861247938387758  0.30200664577768593  1.0000
  O   O12       1.0  0.865353110995988  0.4138752065078625  0.8020066452509325  1.0000
  O   O13       1.0  0.4531650716054878  0.7503388063177253  0.4761279307387859  1.0000
  O   O14       1.0  0.4531650714361968  0.24966119203240417  0.9761279300585955  1.0000
  O   O15       1.0  0.9531650715208076  0.2503388071426606  0.4761279300908114  1.0000
  O   O16       1.0  0.9531650715589581  0.7496611932039778  0.9761279306047834  1.0000
