data_image0
_chemical_formula_structural       H28C32N10O4S2
_chemical_formula_sum              "H28 C32 N10 O4 S2"
_cell_length_a       5.612583615424303
_cell_length_b       7.905213496613735
_cell_length_c       18.03786477203915
_cell_angle_alpha    77.93365097206805
_cell_angle_beta     81.75444062963977
_cell_angle_gamma    77.80439881522388

_space_group_name_H-M_alt    "P 1"
_space_group_IT_number       1

loop_
  _space_group_symop_operation_xyz
  'x, y, z'

loop_
  _atom_site_type_symbol
  _atom_site_label
  _atom_site_symmetry_multiplicity
  _atom_site_fract_x
  _atom_site_fract_y
  _atom_site_fract_z
  _atom_site_occupancy
  H   H1        1.0  0.3878119200239519  0.8739220163003851  0.1398804010437679  1.0000
  H   H2        1.0  0.6121880784863761  0.1260779836747349  0.8601195991931215  1.0000
  H   H3        1.0  0.1210698975537662  0.8361645865311079  0.19875060729839633  1.0000
  H   H4        1.0  0.8789301027494927  0.16383541345840444  0.8012493923016909  1.0000
  H   H5        1.0  0.0235979222209281  0.5412498568132625  0.4319474672717363  1.0000
  H   H6        1.0  0.9764020780871464  0.4587501431715362  0.5680525328829528  1.0000
  H   H7        1.0  0.8933323080496394  0.045932062226725155  0.27725085833066987  1.0000
  H   H8        1.0  0.10666769225843517  0.9540679377580735  0.7227491418240191  1.0000
  H   H9        1.0  0.8972199889589001  0.3020149048601047  0.33479535828804713  1.0000
  H   H10       1.0  0.1027800095514279  0.6979850951150154  0.6652046419488423  1.0000
  H   H11       1.0  0.6192868124365795  0.33778873646649565  0.21828403053285333  1.0000
  H   H12       1.0  0.38071318786667935  0.6622112635230167  0.781715969067234  1.0000
  H   H13       1.0  0.6061036762103006  0.0877712943796233  0.1557805629398433  1.0000
  H   H14       1.0  0.3938963240977739  0.9122287056051752  0.8442194372148457  1.0000
  H   H15       1.0  0.32722713220286337  0.22594632546367305  0.6437143369185163  1.0000
  H   H16       1.0  0.6727728681052111  0.7740536745211256  0.35628566323617267  1.0000
  H   H17       1.0  0.7417762595291638  0.05226597978475681  0.6027834285051304  1.0000
  H   H18       1.0  0.2582237407789106  0.9477340202000418  0.3972165716495585  1.0000
  H   H19       1.0  0.8701538156097556  0.08966623395296283  0.4596003288113911  1.0000
  H   H20       1.0  0.12984618469831888  0.9103337660318358  0.5403996713432978  1.0000
  H   H21       1.0  0.7378737071105409  0.6360293166364633  0.18884943719545394  1.0000
  H   H22       1.0  0.2621262931975335  0.3639706833483352  0.8111505629592349  1.0000
  H   H23       1.0  0.15099991693490183  0.47233205676954215  0.14784934350538548  1.0000
  H   H24       1.0  0.8490000833731726  0.5276679432152565  0.8521506566493036  1.0000
  H   H25       1.0  0.09786840936179197  0.8058411208903521  0.925419801679503  1.0000
  H   H26       1.0  0.9021315909462827  0.19415887909444654  0.0745801984751859  1.0000
  H   H27       1.0  0.6886555232392355  0.9512364140081928  0.9745612191344817  1.0000
  H   H28       1.0  0.311344477068839  0.048763585976605905  0.025438781020207413  1.0000
  C   C1        1.0  0.24687830425077698  0.051141298614728666  0.2106534021811754  1.0000
  C   C2        1.0  0.7531216960524819  0.9488587013747836  0.7893465974189119  1.0000
  C   C3        1.0  0.05178592395070248  0.11027047826820309  0.26422972069036826  1.0000
  C   C4        1.0  0.948214076357372  0.8897295217165956  0.7357702794643207  1.0000
  C   C5        1.0  0.055908299120942924  0.2523715126032972  0.2973507616101795  1.0000
  C   C6        1.0  0.9440917011871315  0.7476284873815013  0.7026492385445094  1.0000
  C   C7        1.0  0.26164326516636865  0.33404798224695337  0.2805878473767092  1.0000
  C   C8        1.0  0.7383567351417059  0.6659520177378451  0.7194121527779798  1.0000
  C   C9        1.0  0.4608210824344062  0.2738235490080823  0.23024198169942778  1.0000
  C   C10       1.0  0.5391789178688526  0.7261764509814299  0.7697580179006596  1.0000
  C   C11       1.0  0.4530355163370448  0.13507780973379085  0.1953368866237667  1.0000
  C   C12       1.0  0.5469644839710296  0.8649221902510077  0.8046631135309223  1.0000
  C   C13       1.0  0.34361886608307923  0.3568667561795017  0.4590974846126444  1.0000
  C   C14       1.0  0.6563811342249952  0.6431332438052969  0.5409025155420445  1.0000
  C   C15       1.0  0.3992203896279596  0.23357861218887266  0.5839777734412129  1.0000
  C   C16       1.0  0.600779610680115  0.7664213877959261  0.41602222671347605  1.0000
  C   C17       1.0  0.6273073632625735  0.1388743885732043  0.5610501930149285  1.0000
  C   C18       1.0  0.37269263704550093  0.8611256114115944  0.4389498071397605  1.0000
  C   C19       1.0  0.6964388736228891  0.16121681716804503  0.4829076845114286  1.0000
  C   C20       1.0  0.3035611266803695  0.8387831828214672  0.5170923150886587  1.0000
  C   C21       1.0  0.8233218539148778  0.6686691596511893  0.13063605822314128  1.0000
  C   C22       1.0  0.17667814639319665  0.33133084033360943  0.8693639419315476  1.0000
  C   C23       1.0  0.053907752679870344  0.5783908979176133  0.10811649274974675  1.0000
  C   C24       1.0  0.9460922476233884  0.421609102071899  0.8918835068503407  1.0000
  C   C25       1.0  0.1617247138794369  0.6267361358120102  0.03326333820137063  1.0000
  C   C26       1.0  0.8382752864238219  0.37326386417750224  0.9667366613987165  1.0000
  C   C27       1.0  0.026023217131714065  0.763676156814822  0.984189479077538  1.0000
  C   C28       1.0  0.9739767831715448  0.23632384317469038  0.015810520522549443  1.0000
  C   C29       1.0  0.7955949322114712  0.8447200292432221  0.011953298746382235  1.0000
  C   C30       1.0  0.20440506809178777  0.1552799707462901  0.9880467008537052  1.0000
  C   C31       1.0  0.39765900008939253  0.5388333948602839  0.009209626141883328  1.0000
  C   C32       1.0  0.6023410002186818  0.46116660512451463  0.9907903740128056  1.0000
  N   N1        1.0  0.23252524298455213  0.9223115685076817  0.17298992057590223  1.0000
  N   N2        1.0  0.767474755525776  0.0776884314674384  0.8270100796609873  1.0000
  N   N3        1.0  0.19330336185722466  0.4722629383547896  0.4096252617064831  1.0000
  N   N4        1.0  0.8066966384508497  0.5277370616300089  0.590374738448206  1.0000
  N   N5        1.0  0.25602366819488515  0.342004704855859  0.5336831530102938  1.0000
  N   N6        1.0  0.7439763321131893  0.6579952951289397  0.46631684714439514  1.0000
  N   N7        1.0  0.558114313587332  0.2690493053444721  0.43124727957644515  1.0000
  N   N8        1.0  0.4418856867207425  0.7309506946403265  0.5687527205782438  1.0000
  N   N9        1.0  0.694111028313958  0.8003699302936208  0.08374448222989055  1.0000
  N   N10       1.0  0.30588897199411635  0.19963006969117786  0.9162555179247985  1.0000
  O   O1        1.0  0.040123065726452196  0.6537046109882115  0.2946693213032689  1.0000
  O   O2        1.0  0.9598769345816223  0.3462953889965871  0.70533067885142  1.0000
  O   O3        1.0  0.4936897659823337  0.5738697208533452  0.2965431184195695  1.0000
  O   O4        1.0  0.5063102343209251  0.42613027913616713  0.7034568811805179  1.0000
  S   S1        1.0  0.2562960384184342  0.5239129244962346  0.31577533353857495  1.0000
  S   S2        1.0  0.7437039618896403  0.47608707548856405  0.684224666616114  1.0000
