data_image0
_chemical_formula_structural       H30C32N10O4S2
_chemical_formula_sum              "H30 C32 N10 O4 S2"
_cell_length_a       5.686055831065648
_cell_length_b       7.862110368754966
_cell_length_c       18.016971313438287
_cell_angle_alpha    98.91424178019184
_cell_angle_beta     98.37557192140127
_cell_angle_gamma    102.21696095185413

_space_group_name_H-M_alt    "P 1"
_space_group_IT_number       1

loop_
  _space_group_symop_operation_xyz
  'x, y, z'

loop_
  _atom_site_type_symbol
  _atom_site_label
  _atom_site_symmetry_multiplicity
  _atom_site_fract_x
  _atom_site_fract_y
  _atom_site_fract_z
  _atom_site_occupancy
  H   H1        1.0  0.1693005971327565  0.32707274438493117  0.3040541864298466  1.0000
  H   H2        1.0  0.8306994027045849  0.6729272558785789  0.6959458134044981  1.0000
  H   H3        1.0  0.9458726632755099  0.3587031675343746  0.35839054768558365  1.0000
  H   H4        1.0  0.05412733656183137  0.6412968327291355  0.6416094521487611  1.0000
  H   H5        1.0  0.045816749748523275  0.03485997561227615  0.06829336374830346  1.0000
  H   H6        1.0  0.9541832500888182  0.965140024651234  0.9317066360860413  1.0000
  H   H7        1.0  0.32673417397110677  0.5382738824389803  0.2265116372690384  1.0000
  H   H8        1.0  0.6732658254187821  0.46172611649845346  0.7734883624572253  1.0000
  H   H9        1.0  0.2745877618332615  0.7971727184418335  0.16948987353137096  1.0000
  H   H10       1.0  0.7254122375566275  0.20282728049560028  0.8305101261948927  1.0000
  H   H11       1.0  0.6458850050849105  0.8208108693925619  0.27587901280855026  1.0000
  H   H12       1.0  0.354114994752431  0.17918913087094834  0.7241209870257944  1.0000
  H   H13       1.0  0.7096369652697967  0.5663434136933059  0.3376820982061813  1.0000
  H   H14       1.0  0.2903630363430004  0.43365658656370065  0.6623179017119186  1.0000
  H   H15       1.0  0.5266690739371482  0.7392245164078325  0.8557024195277239  1.0000
  H   H16       1.0  0.4733309258936858  0.260775483860858  0.14429758086169403  1.0000
  H   H17       1.0  0.1572775762891115  0.5646405375055188  0.8976636597129994  1.0000
  H   H18       1.0  0.8427224253171782  0.435359462756668  0.10233634076017376  1.0000
  H   H19       1.0  0.1758300205999974  0.5914638811171418  0.04165576556736856  1.0000
  H   H20       1.0  0.8241699792373441  0.40853611914636845  0.9583442342669761  1.0000
  H   H21       1.0  0.5152403061969173  0.1167258808854826  0.31246181439246945  1.0000
  H   H22       1.0  0.48475969363391674  0.8832741193832078  0.6875381859969485  1.0000
  H   H23       1.0  0.16354972668375678  0.9754292255820788  0.3659325437498109  1.0000
  H   H24       1.0  0.8364502731470772  0.02457077468661178  0.6340674566396071  1.0000
  H   H25       1.0  0.5113724021923326  0.31821368969180575  0.5836974773438476  1.0000
  H   H26       1.0  0.48862759763850144  0.6817863105768847  0.4163025230455703  1.0000
  H   H27       1.0  0.8451992012852415  0.4440660878102077  0.5214079892097053  1.0000
  H   H28       1.0  0.15480079854559253  0.5559339124584828  0.4785920111797127  1.0000
  H   H29       1.0  0.12717640391825585  0.11574597266722732  0.5783839673505289  1.0000
  H   H30       1.0  0.8728235954716332  0.8842540262702066  0.42161603237573486  1.0000
  C   C1        1.0  0.028038880286444894  0.5386635934271784  0.2890174327710287  1.0000
  C   C2        1.0  0.971961119103444  0.4613364055102553  0.7109825669552349  1.0000
  C   C3        1.0  0.1793145697103667  0.6016015650951825  0.23800550275664453  1.0000
  C   C4        1.0  0.8206854301269748  0.3983984351683276  0.7619944970777002  1.0000
  C   C5        1.0  0.14775847793032257  0.7451666454364946  0.20522006532629075  1.0000
  C   C6        1.0  0.8522415214595664  0.2548333535009392  0.794779934399973  1.0000
  C   C7        1.0  0.9559733675086158  0.8249335766274789  0.21979620358626775  1.0000
  C   C8        1.0  0.044026632328725446  0.17506642363603125  0.7802037962480769  1.0000
  C   C9        1.0  0.7961801622362226  0.7592171566904441  0.26657009172328266  1.0000
  C   C10       1.0  0.20381983760111896  0.24078284357306612  0.7334299081110621  1.0000
  C   C11       1.0  0.8319153037946714  0.6185976172426196  0.3009399668401729  1.0000
  C   C12       1.0  0.1680846960426702  0.3814023830208907  0.6990600329941719  1.0000
  C   C13       1.0  0.7001481571826181  0.8540977381115409  0.04114119019577913  1.0000
  C   C14       1.0  0.29985184220727085  0.14590226082589283  0.9588588095304844  1.0000
  C   C15       1.0  0.516608921305024  0.7419723300276547  0.9157976248126207  1.0000
  C   C16       1.0  0.4833910785323174  0.2580276702358554  0.08420237502172388  1.0000
  C   C17       1.0  0.31371665631679035  0.6468563963558593  0.9392788527984063  1.0000
  C   C18       1.0  0.6862833435205511  0.35314360390765076  0.06072114703593835  1.0000
  C   C19       1.0  0.32488101135140934  0.6630364865720451  0.01785027273530368  1.0000
  C   C20       1.0  0.6751189902613877  0.33696351368496136  0.9821497271827961  1.0000
  C   C21       1.0  0.5076164945741518  0.1574588239848835  0.37263491798965537  1.0000
  C   C22       1.0  0.49238350525668223  0.842541176283807  0.6273650823997626  1.0000
  C   C23       1.0  0.309727762263999  0.07945399802426226  0.4028863370195257  1.0000
  C   C24       1.0  0.6902722375733424  0.920546002239248  0.5971136628148191  1.0000
  C   C25       1.0  0.30173131704257444  0.13535820971055695  0.4804282111898125  1.0000
  C   C26       1.0  0.6982686827947671  0.8646417905529532  0.5195717886445322  1.0000
  C   C27       1.0  0.5017403662189426  0.26884698831014736  0.5231360698645277  1.0000
  C   C28       1.0  0.4982596353938545  0.7311530119468591  0.4768639300535723  1.0000
  C   C29       1.0  0.6917482068873091  0.3395459304291627  0.4879813822081895  1.0000
  C   C30       1.0  0.3082517929500323  0.6604540698343474  0.5120186176261552  1.0000
  C   C31       1.0  0.10276909849978647  0.06214488787020438  0.5173850309687635  1.0000
  C   C32       1.0  0.8972309013310475  0.9378551123984862  0.4826149694206544  1.0000
  N   N1        1.0  0.0745107901721998  0.4107870218976132  0.32754258431097827  1.0000
  N   N2        1.0  0.9254892096651415  0.589212978365897  0.6724574155233666  1.0000
  N   N3        1.0  0.9003074783229972  0.9642082552353567  0.09071102170579849  1.0000
  N   N4        1.0  0.09969252151434416  0.035791745028153445  0.9092889781285461  1.0000
  N   N5        1.0  0.7104800727902211  0.8452456357342677  0.9660658860517789  1.0000
  N   N6        1.0  0.2895199283751236  0.15475436319666228  0.03393411375823997  1.0000
  N   N7        1.0  0.5156818407750697  0.7653771475331701  0.06948432630272196  1.0000
  N   N8        1.0  0.48431815905576425  0.2346228527355203  0.930515674086696  1.0000
  N   N9        1.0  0.6975649669251964  0.2866353388923713  0.4139056807411423  1.0000
  N   N10       1.0  0.3024350324646925  0.7133646600450623  0.5860943189851212  1.0000
  O   O1        1.0  0.16296539227767703  0.14526827433846531  0.2056350663407335  1.0000
  O   O2        1.0  0.8370346075596643  0.8547317259250448  0.7943649334936114  1.0000
  O   O3        1.0  0.7142134428845229  0.06726419025841816  0.205718231728464  1.0000
  O   O4        1.0  0.28578655694631105  0.9327358100102723  0.794281768660954  1.0000
  S   S1        1.0  0.9286873698354682  0.015882999138555568  0.18506587330922117  1.0000
  S   S2        1.0  0.07131262999536603  0.9841170011301349  0.8149341270801969  1.0000
