data_image0
_chemical_formula_structural       H20C24O6Br2
_chemical_formula_sum              "H20 C24 O6 Br2"
_cell_length_a       6.519135302147616
_cell_length_b       8.177924339672781
_cell_length_c       10.170732126486769
_cell_angle_alpha    74.533545273742
_cell_angle_beta     85.29652595163392
_cell_angle_gamma    85.751017224251

_space_group_name_H-M_alt    "P 1"
_space_group_IT_number       1

loop_
  _space_group_symop_operation_xyz
  'x, y, z'

loop_
  _atom_site_type_symbol
  _atom_site_label
  _atom_site_symmetry_multiplicity
  _atom_site_fract_x
  _atom_site_fract_y
  _atom_site_fract_z
  _atom_site_occupancy
  H   H1        1.0  0.4966210069920816  0.40497409717575167  0.22434425336879915  1.0000
  H   H2        1.0  0.5033789933482348  0.5950259024918718  0.775655746850241  1.0000
  H   H3        1.0  0.3040838842650777  0.9107796983530514  0.995182875267592  1.0000
  H   H4        1.0  0.6959161160752388  0.08922030131457233  0.00481712495144803  1.0000
  H   H5        1.0  0.08029044470230115  0.304444856491784  0.43393989319220744  1.0000
  H   H6        1.0  0.9197095556380153  0.6955551431758396  0.5660601070268326  1.0000
  H   H7        1.0  0.9354517240633343  0.499437547883112  0.36621107658670154  1.0000
  H   H8        1.0  0.06454827627698201  0.5005624517845116  0.6337889236323385  1.0000
  H   H9        1.0  0.8533525673762807  0.2541561007769257  0.6299864317256413  1.0000
  H   H10       1.0  0.14664743294683996  0.7458439004504244  0.37001356747154945  1.0000
  H   H11       1.0  0.6823865894722984  0.4267782902175908  0.5554087768055779  1.0000
  H   H12       1.0  0.31761341086801786  0.5732217094500327  0.4445912234134623  1.0000
  H   H13       1.0  0.6067284081062079  0.07872534145855395  0.5907287036862717  1.0000
  H   H14       1.0  0.3932715922341085  0.9212746582090697  0.40927129653276845  1.0000
  H   H15       1.0  0.4815662511149059  0.25065246734993424  0.4727897242478357  1.0000
  H   H16       1.0  0.5184337492254104  0.7493475323176895  0.5272102759712044  1.0000
  H   H17       1.0  0.870098185411564  0.0391383224175224  0.41537336349847936  1.0000
  H   H18       1.0  0.12990181348569416  0.9608616775861016  0.5846266357036124  1.0000
  H   H19       1.0  0.6526395121981081  0.10623298579021803  0.31274470206516886  1.0000
  H   H20       1.0  0.34736048814220843  0.8937670138774056  0.6872552981538712  1.0000
  C   C1        1.0  0.4169285123108589  0.6656862472732071  0.11710495573640098  1.0000
  C   C2        1.0  0.5830714879205067  0.3343137536204409  0.8828950444830781  1.0000
  C   C3        1.0  0.38932841208974434  0.4920694051597237  0.15910139380904298  1.0000
  C   C4        1.0  0.6106715883423272  0.5079305948416017  0.8408986053877088  1.0000
  C   C5        1.0  0.22344979438773044  0.42686194549773515  0.11358187421147738  1.0000
  C   C6        1.0  0.7765502044177727  0.5731380541721868  0.8864181260129027  1.0000
  C   C7        1.0  0.08541767449277199  0.534320368695937  0.024411622390981123  1.0000
  C   C8        1.0  0.9145823258475444  0.4656796309716867  0.975588377828059  1.0000
  C   C9        1.0  0.11943824316961024  0.7098189950110738  0.9829249495589631  1.0000
  C   C10       1.0  0.8805617571707063  0.2901810046565498  0.017075050660076918  1.0000
  C   C11       1.0  0.2835314688980558  0.7748836660021026  0.029508165830865976  1.0000
  C   C12       1.0  0.7164685315340156  0.225116333999223  0.9704918333658857  1.0000
  C   C13       1.0  0.20031272257011365  0.2414820793258995  0.1588651074320221  1.0000
  C   C14       1.0  0.799687277753007  0.7585179219014507  0.8411348917651686  1.0000
  C   C15       1.0  0.9832169360039684  0.8304345926533746  0.8884809662473498  1.0000
  C   C16       1.0  0.01678306442810294  0.16956540734795103  0.1115190329494019  1.0000
  C   C17       1.0  0.9243048586303554  0.36247462968665967  0.4108474596511082  1.0000
  C   C18       1.0  0.07569514170996097  0.6375253699809639  0.589152540567932  1.0000
  C   C19       1.0  0.7719790410234781  0.31490958993822604  0.5375484403912549  1.0000
  C   C20       1.0  0.22802095920788742  0.685090410955422  0.46245155982822406  1.0000
  C   C21       1.0  0.6320691476541624  0.1889311076569746  0.5037087683099523  1.0000
  C   C22       1.0  0.36793085268615405  0.8110688920106489  0.49629123190908775  1.0000
  C   C23       1.0  0.7496795187507377  0.14132228881931735  0.38255775822445814  1.0000
  C   C24       1.0  0.2503204815895788  0.8586777108483061  0.6174422419945819  1.0000
  O   O1        1.0  0.323172618400598  0.14379338383401877  0.23143384728452374  1.0000
  O   O2        1.0  0.6768273819397184  0.8562066158336049  0.7685661529345164  1.0000
  O   O3        1.0  0.009672798799934958  0.9834572632930187  0.8476581741514096  1.0000
  O   O4        1.0  0.9903272015403816  0.016542736374604926  0.15234182606763044  1.0000
  O   O5        1.0  0.8462925425170833  0.29552133853247325  0.3080820339186646  1.0000
  O   O6        1.0  0.15370745782323295  0.7044786611351503  0.6919179663003754  1.0000
  Br  Br1       1.0  0.6428944568163246  0.7582878095010122  0.17355780390038242  1.0000
  Br  Br2       1.0  0.3571055435239916  0.24171219016661133  0.8264421963186577  1.0000
