data_image0
_chemical_formula_structural       H64C72N8O8
_chemical_formula_sum              "H64 C72 N8 O8"
_cell_length_a       7.391705998122091
_cell_length_b       9.991057041564305
_cell_length_c       18.94375011212183
_cell_angle_alpha    90.0
_cell_angle_beta     94.36180299940578
_cell_angle_gamma    90.0

_space_group_name_H-M_alt    "P 1"
_space_group_IT_number       1

loop_
  _space_group_symop_operation_xyz
  'x, y, z'

loop_
  _atom_site_type_symbol
  _atom_site_label
  _atom_site_symmetry_multiplicity
  _atom_site_fract_x
  _atom_site_fract_y
  _atom_site_fract_z
  _atom_site_occupancy
  H   H1        1.0  0.043035118428107214  0.62183942641441  0.09564376378414545  1.0000
  H   H2        1.0  0.45696488141550895  0.1218394264926953  0.4043562364033651  1.0000
  H   H3        1.0  0.95696488123931  0.3781605734290195  0.9043562360624652  1.0000
  H   H4        1.0  0.5430351182717233  0.8781605733507342  0.595643763971656  1.0000
  H   H5        1.0  0.24445853308401513  0.11178418813482577  0.26945488018060204  1.0000
  H   H6        1.0  0.255541466759601  0.6117841880565406  0.23054512000690844  1.0000
  H   H7        1.0  0.7555414666032172  0.8882158117086038  0.730545120194419  1.0000
  H   H8        1.0  0.7444585342644691  0.38821581178688896  0.7694548798722528  1.0000
  H   H9        1.0  0.26141254560640015  0.2763497424260231  0.2319853576727836  1.0000
  H   H10       1.0  0.238587454237216  0.7763497423477378  0.26801464251472695  1.0000
  H   H11       1.0  0.73858745541767  0.7236502574174064  0.7680146422063777  1.0000
  H   H12       1.0  0.7614125454500162  0.22365025749569167  0.7319853578602942  1.0000
  H   H13       1.0  0.9607293267725044  0.0021756756977334385  0.2673097038762352  1.0000
  H   H14       1.0  0.5392706735640043  0.5021756756194482  0.23269029633537486  1.0000
  H   H15       1.0  0.03927067291472774  0.9978243251465913  0.7326902964987859  1.0000
  H   H16       1.0  0.46072932746006573  0.4978243242239813  0.7673097035437864  1.0000
  H   H17       1.0  0.6300326848145485  0.005492546961918654  0.23546035829487583  1.0000
  H   H18       1.0  0.8699673141454927  0.5054925468836334  0.2645396413557734  1.0000
  H   H19       1.0  0.3699673148528688  0.9945074528815109  0.7645396415517349  1.0000
  H   H20       1.0  0.13003268552192465  0.4945074529597961  0.7354603584908374  1.0000
  H   H21       1.0  0.48679649626079396  0.20191849787338798  0.171380353650873  1.0000
  H   H22       1.0  0.013203504919659999  0.7019184977951027  0.32861964604077776  1.0000
  H   H23       1.0  0.5132035047632761  0.7980815019700415  0.8286196462282883  1.0000
  H   H24       1.0  0.9867964961044101  0.2980815020483268  0.6713803538383835  1.0000
  H   H25       1.0  0.6832646730376613  0.39147478227064697  0.13775241756637902  1.0000
  H   H26       1.0  0.8167353259421949  0.8914747821923618  0.36224758261268053  1.0000
  H   H27       1.0  0.316735326649571  0.6085252175727826  0.862247582808642  1.0000
  H   H28       1.0  0.18326467372522243  0.10852521765106782  0.6377524172339302  1.0000
  H   H29       1.0  0.14531231159688332  0.6403930948830046  0.9800871299757709  1.0000
  H   H30       1.0  0.3546876887779101  0.14039309496128974  0.5199128700668014  1.0000
  H   H31       1.0  0.8546876894271866  0.359606904960425  0.019912869903390425  1.0000
  H   H32       1.0  0.6453123109093221  0.8596069048821398  0.48008713030821976  1.0000
  H   H33       1.0  0.25627313868959917  0.8547851568128828  0.9339518674575632  1.0000
  H   H34       1.0  0.24372686032854163  0.35478515689116796  0.5660481325524587  1.0000
  H   H35       1.0  0.7437268609778181  0.14521484303054683  0.06604813238904765  1.0000
  H   H36       1.0  0.7562731393388756  0.6452148429522616  0.4339518672941522  1.0000
  H   H37       1.0  0.16433140221026354  0.033401599911969844  0.13692387525357821  1.0000
  H   H38       1.0  0.3356685976135377  0.5334015998336846  0.363076124405522  1.0000
  H   H39       1.0  0.8356685974571538  0.9665983999314597  0.8630761245930326  1.0000
  H   H40       1.0  0.6643314034105323  0.4665984000097449  0.6369238754736394  1.0000
  H   H41       1.0  0.04558594584925862  0.8128800892851682  0.17226485268840322  1.0000
  H   H42       1.0  0.4544140539943575  0.3128800893634534  0.32773514749910726  1.0000
  H   H43       1.0  0.9544140538379736  0.18711991055826135  0.8277351476866178  1.0000
  H   H44       1.0  0.5455859470297125  0.6871199114808713  0.6722648523800541  1.0000
  H   H45       1.0  0.3392452184032902  0.025020955136180426  0.9012308714351704  1.0000
  H   H46       1.0  0.1607547819516883  0.5250209550578951  0.5987691280789916  1.0000
  H   H47       1.0  0.6607547826207798  0.9749790457081442  0.098769128443991  1.0000
  H   H48       1.0  0.8392452177157291  0.4749790447855344  0.40123087176761907  1.0000
  H   H49       1.0  0.42980466063228867  0.2439927206759617  0.857409474187784  1.0000
  H   H50       1.0  0.0701953397425048  0.7439927205976765  0.6425905258547884  1.0000
  H   H51       1.0  0.5701953403917813  0.7560072801683628  0.14259052569137742  1.0000
  H   H52       1.0  0.9298046599249126  0.256007279245753  0.3574094739918224  1.0000
  H   H53       1.0  0.4246844004019942  0.4451015374549123  0.9345840753704968  1.0000
  H   H54       1.0  0.07531559861614658  0.945101537376627  0.565415924639525  1.0000
  H   H55       1.0  0.5753155992852381  0.5548984633894123  0.0654159250045243  1.0000
  H   H56       1.0  0.9246844010512708  0.054898463467697514  0.4345840752070858  1.0000
  H   H57       1.0  0.3239030880864351  0.423238003987807  0.05770341228512881  1.0000
  H   H58       1.0  0.17609691311383374  0.9232380039095218  0.44229658793493226  1.0000
  H   H59       1.0  0.6760969129574499  0.5767619958556226  0.9422965881224429  1.0000
  H   H60       1.0  0.8239030879102363  0.07676199593390778  0.5577034119442291  1.0000
  H   H61       1.0  0.2298737233349243  0.20615797522035825  0.10102274136382762  1.0000
  H   H62       1.0  0.2701262764888769  0.706157975142073  0.3989772582952726  1.0000
  H   H63       1.0  0.770126276332493  0.7938420246230712  0.8989772584827831  1.0000
  H   H64       1.0  0.7298737231785404  0.29384202470135645  0.6010227415513382  1.0000
  C   C1        1.0  0.9301407567242705  0.3056843312268605  0.1828280068479556  1.0000
  C   C2        1.0  0.5698592435924233  0.8056843311485753  0.3171719928352442  1.0000
  C   C3        1.0  0.0698592429431468  0.694315668616569  0.8171719929986552  1.0000
  C   C4        1.0  0.4301407560749939  0.19431566869485423  0.6828280070113665  1.0000
  C   C5        1.0  0.010994605817497135  0.19512287757840371  0.22110919339131388  1.0000
  C   C6        1.0  0.489005394026119  0.6951228775001185  0.27889080679619666  1.0000
  C   C7        1.0  0.9890053938697351  0.8048771222650258  0.7788908069837072  1.0000
  C   C8        1.0  0.5109946056412983  0.30487712234331105  0.721109193050414  1.0000
  C   C9        1.0  0.8982897828526468  0.08724359258222435  0.2387510439767643  1.0000
  C   C10       1.0  0.6017102161073944  0.5872435925039391  0.26124895567388495  1.0000
  C   C11       1.0  0.10171021681477058  0.9127564082621002  0.7612489558698465  1.0000
  C   C12       1.0  0.39828978356002287  0.41275640834038546  0.7387510441727257  1.0000
  C   C13       1.0  0.7128350588533577  0.0902543240668772  0.2213610529246918  1.0000
  C   C14       1.0  0.7871649401264984  0.5902543239885919  0.2786389472543677  1.0000
  C   C15       1.0  0.28716494081405963  0.9097456767774473  0.778638946921919  1.0000
  C   C16       1.0  0.21283505956073384  0.40974567685573265  0.7213610531206534  1.0000
  C   C17       1.0  0.6320011934910922  0.20040640261288142  0.18555555166943014  1.0000
  C   C18       1.0  0.8679988068256017  0.7004064025345962  0.3144444480137697  1.0000
  C   C19       1.0  0.3679988061763251  0.7995935982314432  0.8144444481771805  1.0000
  C   C20       1.0  0.13200119284181566  0.2995935983097284  0.6855555518328411  1.0000
  C   C21       1.0  0.7415476183995586  0.3054911874992277  0.16663033257301013  1.0000
  C   C22       1.0  0.7584523805604826  0.8054911874209424  0.33336966707763915  1.0000
  C   C23       1.0  0.2584523812678587  0.6945088123442018  0.8333696672736006  1.0000
  C   C24       1.0  0.2415476191069347  0.19450881242248708  0.6666303327689715  1.0000
  C   C25       1.0  0.038302702821737145  0.4225324490129255  0.15992088480103175  1.0000
  C   C26       1.0  0.46169729702187895  0.9225324489346403  0.3400791153864787  1.0000
  C   C27       1.0  0.9616972968654951  0.5774675508305039  0.8400791155739893  1.0000
  C   C28       1.0  0.5383027026455384  0.07746755090878925  0.6599208844601319  1.0000
  C   C29       1.0  0.15369592910448204  0.7309975871038062  0.012396329556531274  1.0000
  C   C30       1.0  0.3463040707193192  0.23099758718209154  0.4876036701025689  1.0000
  C   C31       1.0  0.8463040705629352  0.2690024127396232  0.9876036702900794  1.0000
  C   C32       1.0  0.6536959289480981  0.769002412661338  0.5123963297440417  1.0000
  C   C33       1.0  0.2139381863784888  0.8519109424148931  0.9875917944307141  1.0000
  C   C34       1.0  0.28606181399630465  0.3519109424931783  0.5124082056118581  1.0000
  C   C35       1.0  0.786061814665396  0.14808905842943157  0.012408205976857439  1.0000
  C   C36       1.0  0.7139381856711127  0.6480890583511464  0.4875917942347526  1.0000
  C   C37       1.0  0.2196831608160118  0.9664977048802939  0.030904678851780498  1.0000
  C   C38       1.0  0.2803168390276043  0.4664977049585791  0.46909532133573006  1.0000
  C   C39       1.0  0.7803168388712204  0.03350229596403067  0.9690953215232406  1.0000
  C   C40       1.0  0.719683160639813  0.5335022958857454  0.5309046785108806  1.0000
  C   C41       1.0  0.16212114884596815  0.9505912468009476  0.09963399046951132  1.0000
  C   C42       1.0  0.33787885099764803  0.4505912458783379  0.40036600971799924  1.0000
  C   C43       1.0  0.8378788521979167  0.04940875404337694  0.9003660099380603  1.0000
  C   C44       1.0  0.6621211486697693  0.5494087539650917  0.5996339901286116  1.0000
  C   C45       1.0  0.09905384587388519  0.8279308871511422  0.12092594393272127  1.0000
  C   C46       1.0  0.400946153949916  0.32793088722942737  0.379074055726379  1.0000
  C   C47       1.0  0.900946153793532  0.1720691136931825  0.8790740559138895  1.0000
  C   C48       1.0  0.5990538457175013  0.6720691136148972  0.6209259441202317  1.0000
  C   C49       1.0  0.2792417148324882  0.0973534557908709  0.005072600172319684  1.0000
  C   C50       1.0  0.220758284991313  0.5973534557125857  0.49492739948678055  1.0000
  C   C51       1.0  0.7207582848349291  0.9026465440525586  0.9949273996742911  1.0000
  C   C52       1.0  0.7792417146761043  0.4026465441308439  0.5050726003598301  1.0000
  C   C53       1.0  0.33641498163984623  0.11129128032942413  0.9362158842687933  1.0000
  C   C54       1.0  0.16358501737829453  0.6112912802511389  0.5637841157412286  1.0000
  C   C55       1.0  0.6635850180275711  0.8887087195140053  0.06378411557781756  1.0000
  C   C56       1.0  0.8364149823089376  0.38870871959229064  0.43621588463379257  1.0000
  C   C57       1.0  0.3885173163018608  0.2352281475546487  0.9112240922071622  1.0000
  C   C58       1.0  0.11148268407293264  0.7352281474763634  0.58877590783541  1.0000
  C   C59       1.0  0.6114826833853715  0.7647718532896759  0.08877590816785882  1.0000
  C   C60       1.0  0.8885173155944848  0.2647718523670661  0.41122409201120075  1.0000
  C   C61       1.0  0.38596362827161246  0.34803477805543265  0.9546544052169956  1.0000
  C   C62       1.0  0.11403637208336609  0.8480347779771474  0.5453455942971663  1.0000
  C   C63       1.0  0.6140363727524575  0.6519652217879969  0.045345594662165756  1.0000
  C   C64       1.0  0.8859636275840512  0.15196522186628214  0.45465440554944436  1.0000
  C   C65       1.0  0.3300219277543193  0.3362552106372515  0.023149421043849365  1.0000
  C   C66       1.0  0.16997807206948184  0.8362552105589662  0.4768505786152508  1.0000
  C   C67       1.0  0.669978071913098  0.6637447902070731  0.9768505788027615  1.0000
  C   C68       1.0  0.8300219275979355  0.16374479028535835  0.5231494212313599  1.0000
  C   C69       1.0  0.2764106174904789  0.2123286506297289  0.04791703240853301  1.0000
  C   C70       1.0  0.22358938235313716  0.7123286505514436  0.4520829677789775  1.0000
  C   C71       1.0  0.7235893821769385  0.7876713492137006  0.9520829674380779  1.0000
  C   C72       1.0  0.7764106173340951  0.28767134929198585  0.5479170325960436  1.0000
  N   N1        1.0  0.19332291049488529  0.1886695604036771  0.2380304096055087  1.0000
  N   N2        1.0  0.30667708934873084  0.6886695603253918  0.2619695905820018  1.0000
  N   N3        1.0  0.8066770891923469  0.8113304394397525  0.7619695907695123  1.0000
  N   N4        1.0  0.6933229103186865  0.3113304395180376  0.7380304092646089  1.0000
  N   N5        1.0  0.09667815605920115  0.7207102311641481  0.07795314277443734  1.0000
  N   N6        1.0  0.40332184376460006  0.22071023124243339  0.42204685688466287  1.0000
  N   N7        1.0  0.9033218436082162  0.27928976867928135  0.9220468570721735  1.0000
  N   N8        1.0  0.5966781559028173  0.7792897686009961  0.5779531429619479  1.0000
  O   O1        1.0  0.9585271777827992  0.4988042665823593  0.11254433097323234  1.0000
  O   O2        1.0  0.5414728225338946  0.9988042665040741  0.38745566870996745  1.0000
  O   O3        1.0  0.041472823241270766  0.5011957332610701  0.8874556689059289  1.0000
  O   O4        1.0  0.4585271771335227  0.001195733339355403  0.6125443311366432  1.0000
  O   O5        1.0  0.1987766351510891  0.4422578453528851  0.18753813393572613  1.0000
  O   O6        1.0  0.30122336469252703  0.9422578452745999  0.31246186625178435  1.0000
  O   O7        1.0  0.8012233645163281  0.5577421544905443  0.8124618659108847  1.0000
  O   O8        1.0  0.6987766349947052  0.057742154568829654  0.6875381341232367  1.0000
