data_image0
_chemical_formula_structural       H64C72N8O8
_chemical_formula_sum              "H64 C72 N8 O8"
_cell_length_a       7.422336156615875
_cell_length_b       10.005276019985182
_cell_length_c       18.950497750822052
_cell_angle_alpha    90.0
_cell_angle_beta     94.13845554774595
_cell_angle_gamma    90.0

_space_group_name_H-M_alt    "P 1"
_space_group_IT_number       1

loop_
  _space_group_symop_operation_xyz
  'x, y, z'

loop_
  _atom_site_type_symbol
  _atom_site_label
  _atom_site_symmetry_multiplicity
  _atom_site_fract_x
  _atom_site_fract_y
  _atom_site_fract_z
  _atom_site_occupancy
  H   H1        1.0  0.04307402279444406  0.8786840935161948  0.5949525102796234  1.0000
  H   H2        1.0  0.4569259765361092  0.37868409351545423  0.9050474900737107  1.0000
  H   H3        1.0  0.9569259769252809  0.12131590648528631  0.40504748978348115  1.0000
  H   H4        1.0  0.5430740231836158  0.6213159064860269  0.09495250998939386  1.0000
  H   H5        1.0  0.2585442188896063  0.22151660639576062  0.7319871209865161  1.0000
  H   H6        1.0  0.24145578177638602  0.7215166063965012  0.7680128788709384  1.0000
  H   H7        1.0  0.7414557808301185  0.7784833936057204  0.2680128790765885  1.0000
  H   H8        1.0  0.7585442192940594  0.2784833936049799  0.23198712122437531  1.0000
  H   H9        1.0  0.2416767588656419  0.3858959605200096  0.7689909200833391  1.0000
  H   H10       1.0  0.25832324180035043  0.8858959605207501  0.7310090797741152  1.0000
  H   H11       1.0  0.7583232422048033  0.6141040394814715  0.23100908001197462  1.0000
  H   H12       1.0  0.7416767579193745  0.11410403948073097  0.2689909202889892  1.0000
  H   H13       1.0  0.9586524623905546  0.4952110156784399  0.7665049075248641  1.0000
  H   H14       1.0  0.5413475371890328  0.9952110156791805  0.7334950925697926  1.0000
  H   H15       1.0  0.041347537329170375  0.5047889843230412  0.2334950925382404  1.0000
  H   H16       1.0  0.4586524625306921  0.004788984322300681  0.2665049074933118  1.0000
  H   H17       1.0  0.6294457205927491  0.49072510445416695  0.7352191041839965  1.0000
  H   H18       1.0  0.8705542803375588  0.9907251044549075  0.7647808959428696  1.0000
  H   H19       1.0  0.3705542791269759  0.5092748955473141  0.26478089587910797  1.0000
  H   H20       1.0  0.12944572073288657  0.00927489554657358  0.23521910415244426  1.0000
  H   H21       1.0  0.4877401927208216  0.2937057202750067  0.6718595060057158  1.0000
  H   H22       1.0  0.012259806594450431  0.7937057202757472  0.8281404938195295  1.0000
  H   H23       1.0  0.5122598069989034  0.7062942797264743  0.32814049405738877  1.0000
  H   H24       1.0  0.9877401931252745  0.20629427972573383  0.17185950624357504  1.0000
  H   H25       1.0  0.6846781615845844  0.10528685344570436  0.637972348685506  1.0000
  H   H26       1.0  0.8153218393457233  0.6052868534464448  0.8620276514413601  1.0000
  H   H27       1.0  0.31532183948586096  0.8947131465557767  0.3620276514098077  1.0000
  H   H28       1.0  0.18467816172472196  0.3947131465550362  0.13797234865395383  1.0000
  H   H29       1.0  0.14423799667844653  0.8586757549556064  0.47912557850714577  1.0000
  H   H30       1.0  0.35576200318141593  0.3586757549548658  0.020874421524406505  1.0000
  H   H31       1.0  0.8557620030412784  0.14132424504587474  0.5208744215559588  1.0000
  H   H32       1.0  0.6442379965383089  0.6413242450466153  0.9791255785386979  1.0000
  H   H33       1.0  0.2558559040654073  0.6441800073407217  0.43366303662740274  1.0000
  H   H34       1.0  0.24414409579445515  0.14418000733998107  0.06633696340414942  1.0000
  H   H35       1.0  0.7441440956543177  0.3558199926607595  0.5663369634357017  1.0000
  H   H36       1.0  0.7558559039252698  0.8558199926615  0.9336630366589549  1.0000
  H   H37       1.0  0.16223874790109738  0.46768665658530534  0.636992086978284  1.0000
  H   H38       1.0  0.3377612514294558  0.9676866565860458  0.8630079133750499  1.0000
  H   H39       1.0  0.8377612518186276  0.5323133434161758  0.36300791308482033  1.0000
  H   H40       1.0  0.6622387482902691  0.032313343415435215  0.13699208668805465  1.0000
  H   H41       1.0  0.04445501656576124  0.6885056560398823  0.6718234373498198  1.0000
  H   H42       1.0  0.45554498411551236  0.1885056560391418  0.8281765630357234  1.0000
  H   H43       1.0  0.9555449831539636  0.3114943439615988  0.32817656271328466  1.0000
  H   H44       1.0  0.5444550156042125  0.8114943439623393  0.1718234370273811  1.0000
  H   H45       1.0  0.3418771565501628  0.47448432712074556  0.40180749741323896  1.0000
  H   H46       1.0  0.15812284466042004  0.9744843271214861  0.09819250265052253  1.0000
  H   H47       1.0  0.6581228445202825  0.5255156728807355  0.5981925026820747  1.0000
  H   H48       1.0  0.8418771564100254  0.025515672879994976  0.9018074974447913  1.0000
  H   H49       1.0  0.4334944565408424  0.25520169907354356  0.3588534892013538  1.0000
  H   H50       1.0  0.0665055446697405  0.7552016990742841  0.14114651086240768  1.0000
  H   H51       1.0  0.5665055445296029  0.7447983009279375  0.6411465108939599  1.0000
  H   H52       1.0  0.9334944564007049  0.24479830092719698  0.858853489232906  1.0000
  H   H53       1.0  0.4254119879071983  0.05490713088801059  0.4364260033992343  1.0000
  H   H54       1.0  0.07458801195266415  0.5549071308887512  0.06357399663231797  1.0000
  H   H55       1.0  0.5745880118125266  0.9450928691134706  0.5635739966638701  1.0000
  H   H56       1.0  0.9254119877517795  0.44509286911272994  0.9364260029026976  1.0000
  H   H57       1.0  0.32204610657710975  0.07803409405602349  0.558904473998654  1.0000
  H   H58       1.0  0.17795389275344345  0.5780340940567641  0.94109552635468  1.0000
  H   H59       1.0  0.6779538931426151  0.9219659059454576  0.4410955260644505  1.0000
  H   H60       1.0  0.8220461069662814  0.42196590594471706  0.05890447370842451  1.0000
  H   H61       1.0  0.227479721396363  0.2948571048022291  0.6014243466885845  1.0000
  H   H62       1.0  0.27252027793419026  0.7948571048029697  0.8985756536647493  1.0000
  H   H63       1.0  0.772520278323362  0.705142895199252  0.39857565337452  1.0000
  H   H64       1.0  0.7274797217855347  0.20514289519851148  0.10142434639835501  1.0000
  C   C1        1.0  0.038279048655152595  0.07561532120541344  0.6599612525041797  1.0000
  C   C2        1.0  0.46172095201083974  0.575615321206154  0.8400387473532747  1.0000
  C   C3        1.0  0.9617209510645723  0.9243846787960677  0.3400387475589247  1.0000
  C   C4        1.0  0.5382790490596056  0.4243846787953271  0.1599612527420391  1.0000
  C   C5        1.0  0.9295607195723556  0.1917776927060571  0.6827541814916679  1.0000
  C   C6        1.0  0.5704392799919504  0.6917776927067977  0.8172458180749  1.0000
  C   C7        1.0  0.07043928013208801  0.8082223072954239  0.31724581804334784  1.0000
  C   C8        1.0  0.42956071972777443  0.3082223072946835  0.1827541819882044  1.0000
  C   C9        1.0  0.009434147057927377  0.3025721863098069  0.7207409779007083  1.0000
  C   C10       1.0  0.49056585225734456  0.8025721863105475  0.7792590219245368  1.0000
  C   C11       1.0  0.9905658526465163  0.6974278136916741  0.2792590216343074  1.0000
  C   C12       1.0  0.5094341474623804  0.1974278136909336  0.22074097813856766  1.0000
  C   C13       1.0  0.8967579521718989  0.410050786385609  0.7383149347881445  1.0000
  C   C14       1.0  0.6032420474076885  0.9100507863863496  0.7616850653065123  1.0000
  C   C15       1.0  0.10324204754782597  0.589949213615872  0.26168506527496  1.0000
  C   C16       1.0  0.3967579523120365  0.08994921361513152  0.2383149347565922  1.0000
  C   C17       1.0  0.7122249262327865  0.40632436345379513  0.7211901131217805  1.0000
  C   C18       1.0  0.7877750746975211  0.9063243634545357  0.7788098870050855  1.0000
  C   C19       1.0  0.28777507483765874  0.5936756365476858  0.27880988697353315  1.0000
  C   C20       1.0  0.21222492502220372  0.09367563654694537  0.22119011305801906  1.0000
  C   C21       1.0  0.6323173051275083  0.29596715513745375  0.6856894735196305  1.0000
  C   C22       1.0  0.8676826958027996  0.7959671551381943  0.8143105266072355  1.0000
  C   C23       1.0  0.3676826959429371  0.7040328448640273  0.3143105265756832  1.0000
  C   C24       1.0  0.13231730391692534  0.2040328448632868  0.1856894734558691  1.0000
  C   C25       1.0  0.7419706824829222  0.19129550311025148  0.6666792751221055  1.0000
  C   C26       1.0  0.7580293170966653  0.6912955031109921  0.8333207249725513  1.0000
  C   C27       1.0  0.2580293172368028  0.8087044968912295  0.33332072494099896  1.0000
  C   C28       1.0  0.24197068262305968  0.30870449689048907  0.16667927509055325  1.0000
  C   C29       1.0  0.15276600111782948  0.7684185928147325  0.5116008936409828  1.0000
  C   C30       1.0  0.34723399821272377  0.26841859281399194  0.9883991067123509  1.0000
  C   C31       1.0  0.8472339986018954  0.23158140718674863  0.4883991064221216  1.0000
  C   C32       1.0  0.6527660015070011  0.7315814071874891  0.01160089335075349  1.0000
  C   C33       1.0  0.21306426626541616  0.6474420162982765  0.48722247965345106  1.0000
  C   C34       1.0  0.2869357349451667  0.14744201629753587  0.012777520410310503  1.0000
  C   C35       1.0  0.7869357348050291  0.3525579837032046  0.5127775204418628  1.0000
  C   C36       1.0  0.7130642661252787  0.8525579837039453  0.9872224796850032  1.0000
  C   C37       1.0  0.21834055502752336  0.5335467366754272  0.5308799171267211  1.0000
  C   C38       1.0  0.28165944563846895  0.03354673667468667  0.9691200827307334  1.0000
  C   C39       1.0  0.7816594460276406  0.4664532633260539  0.46912008244050374  1.0000
  C   C40       1.0  0.718340554081256  0.9664532633267945  0.03087991733237123  1.0000
  C   C41       1.0  0.16049586075373548  0.5500166850977241  0.5995471672445679  1.0000
  C   C42       1.0  0.33950413857681777  0.05001668509698358  0.900452833108766  1.0000
  C   C43       1.0  0.8395041389659894  0.449983314903757  0.40045283281853655  1.0000
  C   C44       1.0  0.6604958611429071  0.9499833149044975  0.09954716695433852  1.0000
  C   C45       1.0  0.09790087403195018  0.6727720421260273  0.6204888585641275  1.0000
  C   C46       1.0  0.4020991252833218  0.17277204212528663  0.8795111412611176  1.0000
  C   C47       1.0  0.9020991256877747  0.32722795787545395  0.3795111414989771  1.0000
  C   C48       1.0  0.5979008744211218  0.8272279578761944  0.12048885827389799  1.0000
  C   C49       1.0  0.2784801389820131  0.40289735954790484  0.5054404017654223  1.0000
  C   C50       1.0  0.22151986169926047  0.9028973595486454  0.9945595986201208  1.0000
  C   C51       1.0  0.7215198607377117  0.5971026404535762  0.49455959829768215  1.0000
  C   C52       1.0  0.7784801393711849  0.09710264045283569  0.005440401475192914  1.0000
  C   C53       1.0  0.3377393073275574  0.3884609442294783  0.4368823426289883  1.0000
  C   C54       1.0  0.16226069253230505  0.8884609442302187  0.06311765740256393  1.0000
  C   C55       1.0  0.6622606923921674  0.6115390557720028  0.5631176574341161  1.0000
  C   C56       1.0  0.8377393085381402  0.11153905577126226  0.9368823426927498  1.0000
  C   C57       1.0  0.39037965989967516  0.2644356042467201  0.4123749880991691  1.0000
  C   C58       1.0  0.10962034131090767  0.7644356042474606  0.0876250119645924  1.0000
  C   C59       1.0  0.6096203411707701  0.735564395754761  0.5876250119961446  1.0000
  C   C60       1.0  0.8903796597595377  0.23556439575402044  0.9123749881307214  1.0000
  C   C61       1.0  0.38635045944218976  0.15211315579500165  0.4560108404320801  1.0000
  C   C62       1.0  0.11364954041767267  0.6521131557957422  0.04398915959947216  1.0000
  C   C63       1.0  0.613649540277535  0.8478868442064794  0.5439891596310243  1.0000
  C   C64       1.0  0.8863504593020523  0.3478868442057389  0.9560108404636324  1.0000
  C   C65       1.0  0.3289375251908986  0.16451963311277423  0.5242223323087445  1.0000
  C   C66       1.0  0.17106247412437336  0.6645196331135147  0.9757776675165006  1.0000
  C   C67       1.0  0.6710624745288264  0.8354803668887069  0.47577766775436  1.0000
  C   C68       1.0  0.8289375255953515  0.3354803668879663  0.024222332546603845  1.0000
  C   C69       1.0  0.2749047077605125  0.28842384500295615  0.5484939773737669  1.0000
  C   C70       1.0  0.2250952915700407  0.7884238450036967  0.951506022979567  1.0000
  C   C71       1.0  0.7250952919592124  0.7115761549985249  0.4515060226893374  1.0000
  C   C72       1.0  0.7749047081496842  0.21157615499778437  0.04849397708353758  1.0000
  N   N1        1.0  0.1909586311497931  0.3093350152277542  0.7374835400723626  1.0000
  N   N2        1.0  0.30904136951619926  0.8093350152284947  0.7625164597850919  1.0000
  N   N3        1.0  0.809041369905371  0.6906649847737268  0.26251645949486235  1.0000
  N   N4        1.0  0.6909586302035257  0.19066498477298632  0.23748354027801266  1.0000
  N   N5        1.0  0.09593327446235941  0.7792774736475034  0.5771806659373482  1.0000
  N   N6        1.0  0.40406672485291256  0.27927747364676286  0.922819333887897  1.0000
  N   N7        1.0  0.9040667252573654  0.22072252635397765  0.42281933412575634  1.0000
  N   N8        1.0  0.5959332748668124  0.7207225263547182  0.0771806661752075  1.0000
  O   O1        1.0  0.960076916937971  0.00040868537677844654  0.6119553551453233  1.0000
  O   O2        1.0  0.539923082626335  0.5004086853775189  0.8880446444212448  1.0000
  O   O3        1.0  0.03992308278175387  0.9995913146247027  0.3880446449177811  1.0000
  O   O4        1.0  0.46007691707810855  0.49959131462396206  0.11195535511377108  1.0000
  O   O5        1.0  0.19714674375738603  0.0553845410054785  0.6880112209251504  1.0000
  O   O6        1.0  0.3028532569086063  0.555384541006219  0.811988778932304  1.0000
  O   O7        1.0  0.8028532559623388  0.9446154589960025  0.31198877913795403  1.0000
  O   O8        1.0  0.697146744161839  0.44461545899526206  0.18801122116300975  1.0000
