data_image0
_chemical_formula_structural       H64C72N8O8
_chemical_formula_sum              "H64 C72 N8 O8"
_cell_length_a       8.176519839542316
_cell_length_b       10.710060558454453
_cell_length_c       18.627030662807595
_cell_angle_alpha    73.72931669846781
_cell_angle_beta     83.5377817492672
_cell_angle_gamma    69.08841378792981

_space_group_name_H-M_alt    "P 1"
_space_group_IT_number       1

loop_
  _space_group_symop_operation_xyz
  'x, y, z'

loop_
  _atom_site_type_symbol
  _atom_site_label
  _atom_site_symmetry_multiplicity
  _atom_site_fract_x
  _atom_site_fract_y
  _atom_site_fract_z
  _atom_site_occupancy
  H   H1        1.0  0.447038783626523  0.543433111741104  0.3099064540931744  1.0000
  H   H2        1.0  0.5529612163394596  0.4565668882186377  0.6900935461688745  1.0000
  H   H3        1.0  0.7343699050227582  0.5305297349172113  0.24990837923664372  1.0000
  H   H4        1.0  0.2656300949453511  0.46947026504293476  0.7500916204883818  1.0000
  H   H5        1.0  0.8474633209111112  0.7021819704937599  0.41425833660778083  1.0000
  H   H6        1.0  0.15253667905487142  0.29781802946598185  0.5857416636542683  1.0000
  H   H7        1.0  0.5545804913068582  0.7192065479512042  0.47257393388088637  1.0000
  H   H8        1.0  0.44541950866125113  0.280793452008942  0.5274260658441392  1.0000
  H   H9        1.0  0.014981960758812035  0.5605537509109352  0.2551922382895317  1.0000
  H   H10       1.0  0.9850180392092973  0.4394462490492111  0.7448077614354939  1.0000
  H   H11       1.0  0.05830336766295564  0.6265561189914717  0.32275216835250464  1.0000
  H   H12       1.0  0.941696632303027  0.37344388096827014  0.6772478319095443  1.0000
  H   H13       1.0  0.12247216925858743  0.7448660083079204  0.4933243676844917  1.0000
  H   H14       1.0  0.8775278307073952  0.2551339916518214  0.5066756325775572  1.0000
  H   H15       1.0  0.930531664356392  0.3503794631776189  0.19967886611170196  1.0000
  H   H16       1.0  0.06946833561171735  0.6496205367825274  0.8003211336133235  1.0000
  H   H17       1.0  0.2251458830791904  0.2640168184828532  0.2538389356157225  1.0000
  H   H18       1.0  0.7748541168867923  0.7359831814768886  0.7461610646463265  1.0000
  H   H19       1.0  0.3460171734800939  0.6027721511943799  0.09666353119882173  1.0000
  H   H20       1.0  0.6539828264880153  0.3972278487657664  0.9033364685262039  1.0000
  H   H21       1.0  0.0510497439417051  0.6863912123904768  0.0420817009009005  1.0000
  H   H22       1.0  0.9489502572531655  0.3136087875737425  0.9579182993007197  1.0000
  H   H23       1.0  0.5110960303846902  0.2944028759761427  0.24836112548610922  1.0000
  H   H24       1.0  0.4889039695812924  0.7055971239835991  0.7516388747759397  1.0000
  H   H25       1.0  0.5568314322891951  0.4291622185426817  0.18225841492717398  1.0000
  H   H26       1.0  0.4431685676767874  0.5708377814170601  0.817741585334875  1.0000
  H   H27       1.0  0.6222269642303684  0.7319667496012742  0.016314995415057557  1.0000
  H   H28       1.0  0.37777303573561427  0.26803325035846753  0.9836850048469914  1.0000
  H   H29       1.0  0.9530676608207032  0.5744184176887867  0.558395841848261  1.0000
  H   H30       1.0  0.04693233914740616  0.4255815822713597  0.44160415787676455  1.0000
  H   H31       1.0  0.6638485016116135  0.6147128193154051  0.62166845906833  1.0000
  H   H32       1.0  0.33615149835436914  0.3852871806443366  0.37833154119371887  1.0000
  H   H33       1.0  0.36251782996881027  0.7116374151793746  0.6016332053022169  1.0000
  H   H34       1.0  0.6374821699971723  0.28836258478036714  0.398366794959832  1.0000
  H   H35       1.0  0.07009380945190699  0.7651183743423349  0.661061353498721  1.0000
  H   H36       1.0  0.9299061905162023  0.23488162561781134  0.3389386462263045  1.0000
  H   H37       1.0  0.9588755476533443  0.9580833955872322  0.7243523914944134  1.0000
  H   H38       1.0  0.0411244523126383  0.04191660437250961  0.27564760876763533  1.0000
  H   H39       1.0  0.14845919135868868  0.09258276833314741  0.7291215642507486  1.0000
  H   H40       1.0  0.8515408086094208  0.9074172316269988  0.2708784354742769  1.0000
  H   H41       1.0  0.4453364060009463  0.036009071450156596  0.6718745488769103  1.0000
  H   H42       1.0  0.554663593967163  0.9639909285099896  0.3281254508481152  1.0000
  H   H43       1.0  0.595156103071527  0.05214677403175403  0.5598822914170443  1.0000
  H   H44       1.0  0.40484389689445566  0.9478532259279877  0.4401177088450048  1.0000
  H   H45       1.0  0.8832488071917506  0.9930043558712899  0.49615115017008815  1.0000
  H   H46       1.0  0.1167511927763587  0.006995644088856367  0.5038488495549373  1.0000
  H   H47       1.0  0.6122170203668867  0.021328245446516743  0.9887061102629456  1.0000
  H   H48       1.0  0.3877829796012226  0.9786717545136294  0.011293889462079822  1.0000
  H   H49       1.0  0.8943041982305605  0.9034026478051573  0.05376444121160086  1.0000
  H   H50       1.0  0.1056958017375486  0.09659735215498895  0.9462355585134246  1.0000
  H   H51       1.0  0.04591127219975951  0.813201039842551  0.15967072356415918  1.0000
  H   H52       1.0  0.9540887277683497  0.18679896011759523  0.8403292761608663  1.0000
  H   H53       1.0  0.3391375387220291  0.7063908294087341  0.21489577007859006  1.0000
  H   H54       1.0  0.6608624612460802  0.2936091705514121  0.7851042296464356  1.0000
  H   H55       1.0  0.5197587925897885  0.8495213486278375  0.21528384402377296  1.0000
  H   H56       1.0  0.48024120737619413  0.15047865133190422  0.7847161562382761  1.0000
  H   H57       1.0  0.40378961331328067  0.104742745671482  0.15607106939469528  1.0000
  H   H58       1.0  0.5962103866548286  0.8952572542886643  0.8439289303303302  1.0000
  H   H59       1.0  0.11473239975253734  0.21147825607421772  0.09654684291463074  1.0000
  H   H60       1.0  0.8852676002155718  0.7885217438859285  0.9034531568103948  1.0000
  H   H61       1.0  0.8173407549410061  0.2845930643740621  0.1127404608710329  1.0000
  H   H62       1.0  0.1826592450249764  0.7154069355856797  0.887259539391016  1.0000
  H   H63       1.0  0.5328450756113411  0.38252706437513995  0.0493565722825876  1.0000
  H   H64       1.0  0.46715492435464157  0.6174729355846018  0.9506434279794612  1.0000
  C   C1        1.0  0.4768759044138327  0.6375180400791762  0.3938120533527703  1.0000
  C   C2        1.0  0.5231240955521499  0.36248195988056553  0.6061879469092787  1.0000
  C   C3        1.0  0.5334951953047425  0.580192438180147  0.33235492687659857  1.0000
  C   C4        1.0  0.4665048046612401  0.4198075617795947  0.6676450733854503  1.0000
  C   C5        1.0  0.695693985009996  0.5716893203994036  0.2988417358182639  1.0000
  C   C6        1.0  0.3043060149581132  0.42831067956074276  0.7011582639067616  1.0000
  C   C7        1.0  0.8105963024841429  0.6186968306878817  0.3268036491383799  1.0000
  C   C8        1.0  0.18940369748183955  0.3813031692718601  0.6731963511236692  1.0000
  C   C9        1.0  0.7575832914268371  0.6694381414907569  0.39121499914625163  1.0000
  C   C10       1.0  0.24241670854127204  0.33056185846938946  0.6087850005787738  1.0000
  C   C11       1.0  0.5939626432593571  0.6792844219753083  0.4232633292962455  1.0000
  C   C12       1.0  0.40603735670662566  0.32071557798443345  0.5767366709658036  1.0000
  C   C13       1.0  0.29734062741671047  0.6584790511244939  0.4235715338479896  1.0000
  C   C14       1.0  0.7026593737781601  0.3415209488397256  0.5764284663536307  1.0000
  C   C15       1.0  0.9684782695010402  0.5259431242152629  0.11769138457411603  1.0000
  C   C16       1.0  0.031521730464942506  0.47405687574447886  0.882308615687933  1.0000
  C   C17       1.0  0.021702829713425468  0.40563526264988126  0.17697636704153513  1.0000
  C   C18       1.0  0.9782971702546838  0.5943647373102651  0.8230236326834903  1.0000
  C   C19       1.0  0.18658632633373767  0.35733238876773293  0.20771465685317247  1.0000
  C   C20       1.0  0.8134136736343717  0.6426676111924133  0.7922853428718531  1.0000
  C   C21       1.0  0.3063018521728094  0.4286518640114657  0.17964069995058288  1.0000
  C   C22       1.0  0.6936981477952998  0.5713481359486805  0.8203592997744426  1.0000
  C   C23       1.0  0.2539940909864255  0.5480820268087258  0.11879372856775705  1.0000
  C   C24       1.0  0.7460059102084451  0.45191797315549354  0.8812062716338633  1.0000
  C   C25       1.0  0.08915321830755624  0.5946607745915056  0.08890074759654526  1.0000
  C   C26       1.0  0.910846781660553  0.4053392253686407  0.9110992521284803  1.0000
  C   C27       1.0  0.7899083641053761  0.5799767982212954  0.088204193195721  1.0000
  C   C28       1.0  0.2100916370916209  0.4200232017433285  0.9117958064688758  1.0000
  C   C29       1.0  0.8695695277089288  0.6788686654332711  0.5600660744241387  1.0000
  C   C30       1.0  0.1304304722591804  0.32113133452687503  0.4399339253008867  1.0000
  C   C31       1.0  0.7062059173136832  0.7027887230712069  0.5953880042674322  1.0000
  C   C32       1.0  0.2937940826522996  0.29721127688853494  0.40461199599461684  1.0000
  C   C33       1.0  0.601283730813774  0.8384325363317903  0.5969052702367208  1.0000
  C   C34       1.0  0.3987162691543353  0.16156746362835606  0.4030947294883048  1.0000
  C   C35       1.0  0.4259493625334222  0.8695144318683502  0.6328260092721415  1.0000
  C   C36       1.0  0.5740506374325606  0.1304855680913916  0.36717399098990755  1.0000
  C   C37       1.0  0.31821029739347034  0.7933562457255972  0.6307558352494225  1.0000
  C   C38       1.0  0.6817897025725121  0.20664375423414474  0.3692441650126265  1.0000
  C   C39       1.0  0.15169136754240783  0.824891971236091  0.6637694352456468  1.0000
  C   C40       1.0  0.8483086324235747  0.1751080287236508  0.3362305650164021  1.0000
  C   C41       1.0  0.08949379112140174  0.9327354181658407  0.6989921172398164  1.0000
  C   C42       1.0  0.9105062088445809  0.06726458179390103  0.30100788302223264  1.0000
  C   C43       1.0  0.19600650739953968  0.008256865106619334  0.7018274899989695  1.0000
  C   C44       1.0  0.8039934925685698  0.9917431348535268  0.29817250972605597  1.0000
  C   C45       1.0  0.3628269353849554  0.9768604610719369  0.6691755020828813  1.0000
  C   C46       1.0  0.6371730645831538  0.02313953888820932  0.33082449764214406  1.0000
  C   C47       1.0  0.6691531813906089  0.944327990504723  0.5615637942711125  1.0000
  C   C48       1.0  0.33084681857537374  0.05567200945501872  0.43843620599093636  1.0000
  C   C49       1.0  0.8319842895144459  0.911475437970714  0.5262450760493507  1.0000
  C   C50       1.0  0.16801571045153663  0.08852456198902778  0.47375492421269844  1.0000
  C   C51       1.0  0.6599917346038708  0.07485172722293741  0.01882287902352185  1.0000
  C   C52       1.0  0.3400082653642385  0.9251482727372088  0.9811771207015038  1.0000
  C   C53       1.0  0.8196018812743304  0.00973277170273006  0.05477856004824008  1.0000
  C   C54       1.0  0.18039811869165212  0.9902672282570119  0.9452214402138088  1.0000
  C   C55       1.0  0.12458614963056089  0.877640195237794  0.1576075238051843  1.0000
  C   C56       1.0  0.8754138503354217  0.12235980472194782  0.8423924764568647  1.0000
  C   C57       1.0  0.28950521755345704  0.81725030460636  0.18966433365199262  1.0000
  C   C58       1.0  0.7104947824125256  0.1827496953533818  0.8103356666100562  1.0000
  C   C59       1.0  0.3908598054934922  0.898149811936156  0.18978221599541906  1.0000
  C   C60       1.0  0.6091401944724903  0.10185018802358592  0.8102177842666299  1.0000
  C   C61       1.0  0.3256914424432756  0.04042359130072676  0.1569541041510905  1.0000
  C   C62       1.0  0.674308557522707  0.959576408659015  0.8430458961109585  1.0000
  C   C63       1.0  0.16092292805686972  0.10125358282634069  0.12417690020007167  1.0000
  C   C64       1.0  0.8390770719091131  0.898746417133401  0.8758231000619772  1.0000
  C   C65       1.0  0.7781477279520445  0.22051613419241942  0.08687407205427954  1.0000
  C   C66       1.0  0.22185227201393823  0.7794838657673223  0.9131259282077694  1.0000
  C   C67       1.0  0.6177497243412838  0.2767121288478574  0.05126308180119486  1.0000
  C   C68       1.0  0.3822502756246989  0.7232878711118843  0.948736918460854  1.0000
  C   C69       1.0  0.8843758994425696  0.08348154248990289  0.08924096685084043  1.0000
  C   C70       1.0  0.1156241005255397  0.9165184574702434  0.910759032874185  1.0000
  C   C71       1.0  0.057823696019084804  0.02052045515469408  0.12436751053297203  1.0000
  C   C72       1.0  0.9421763039468977  0.9794795448050477  0.8756324897290769  1.0000
  N   N1        1.0  0.9671444445060374  0.6192445107069827  0.2921964383135527  1.0000
  N   N2        1.0  0.03285555668883346  0.38075548925723657  0.7078035618880676  1.0000
  N   N3        1.0  0.4661339027417689  0.3872934590500478  0.21053714511270302  1.0000
  N   N4        1.0  0.5338660972242137  0.6127065409096938  0.789462855149346  1.0000
  N   N5        1.0  0.9320719110362617  0.7812464241397379  0.5257494340585246  1.0000
  N   N6        1.0  0.06792808847984637  0.21875357685512592  0.47425056552235056  1.0000
  N   N7        1.0  0.5591440344052803  0.20582513376632233  0.01721456812909392  1.0000
  N   N8        1.0  0.44085596556070245  0.7941748661934195  0.9827854321329552  1.0000
  O   O1        1.0  0.19202809389230405  0.618381663940817  0.40083735228535833  1.0000
  O   O2        1.0  0.8079719060758053  0.3816183360193292  0.5991626474396672  1.0000
  O   O3        1.0  0.2545297513000903  0.727185870353962  0.47642944333017334  1.0000
  O   O4        1.0  0.7454702486658923  0.2728141296057797  0.5235705569318755  1.0000
  O   O5        1.0  0.6801293852080256  0.5209547985137848  0.11177770398310073  1.0000
  O   O6        1.0  0.319870614757957  0.4790452014459569  0.8882222962789484  1.0000
  O   O7        1.0  0.754107490647938  0.6975036664978549  0.034834165497783835  1.0000
  O   O8        1.0  0.24589250931804474  0.3024963334618869  0.9651658347642651  1.0000
