data_image0
_chemical_formula_structural       H34C50N10O24
_chemical_formula_sum              "H34 C50 N10 O24"
_cell_length_a       9.580769866671757
_cell_length_b       10.154360726471154
_cell_length_c       14.400140705152236
_cell_angle_alpha    88.63823889279419
_cell_angle_beta     76.52242269575552
_cell_angle_gamma    64.25336083349262

_space_group_name_H-M_alt    "P 1"
_space_group_IT_number       1

loop_
  _space_group_symop_operation_xyz
  'x, y, z'

loop_
  _atom_site_type_symbol
  _atom_site_label
  _atom_site_symmetry_multiplicity
  _atom_site_fract_x
  _atom_site_fract_y
  _atom_site_fract_z
  _atom_site_occupancy
  H   H1        1.0  0.7988929643769274  0.17102625774360775  0.3247413779346071  1.0000
  H   H2        1.0  0.20110703647587896  0.8289737420094789  0.6752586221335907  1.0000
  H   H3        1.0  0.04408567833546613  0.3496012774501058  0.46080710464629776  1.0000
  H   H4        1.0  0.9559143209179897  0.6503987234036892  0.5391928956511215  1.0000
  H   H5        1.0  0.008094773650116566  0.4392323200600469  0.17125089806028088  1.0000
  H   H6        1.0  0.991905226127904  0.5607676796961086  0.828749102174096  1.0000
  H   H7        1.0  0.6892753132726788  0.6839682675207385  0.2169422834878347  1.0000
  H   H8        1.0  0.31072468650534163  0.31603173223541703  0.7830577167465422  1.0000
  H   H9        1.0  0.47631224874082284  0.6665433034505744  0.5125853733128138  1.0000
  H   H10       1.0  0.5236877521119835  0.33345669630251235  0.4874146267553841  1.0000
  H   H11       1.0  0.7626801424117625  0.903416671933337  0.44146941986839966  1.0000
  H   H12       1.0  0.2373198573662581  0.09658332782281853  0.5585305803659772  1.0000
  H   H13       1.0  0.3203864658581217  0.5175620797766192  0.3748265644540288  1.0000
  H   H14       1.0  0.6796135339198988  0.4824379199795364  0.6251734357803483  1.0000
  H   H15       1.0  0.2632328170963244  0.9520386953682759  0.9811528922765899  1.0000
  H   H16       1.0  0.736767183756482  0.04796130438481062  0.018847107791607986  1.0000
  H   H17       1.0  0.19848940903210396  0.7479626483878747  0.03920653975195998  1.0000
  H   H18       1.0  0.8015105912961374  0.25203735246285147  0.9607934603792803  1.0000
  H   H19       1.0  0.23403297923693744  0.8199021930847168  0.31335023993127276  1.0000
  H   H20       1.0  0.7659670205416762  0.18009780667158795  0.6866497596085722  1.0000
  H   H21       1.0  0.4502014716737195  0.12098369492741376  0.20174504013608233  1.0000
  H   H22       1.0  0.5497985275797362  0.8790163059263811  0.798254960161337  1.0000
  H   H23       1.0  0.30450886007513595  0.025669799360300474  0.26701449380036035  1.0000
  H   H24       1.0  0.6954911391789127  0.9743302014936437  0.7329855058025269  1.0000
  H   H25       1.0  0.4863074210620885  0.3435862491549331  0.16266750559011714  1.0000
  H   H26       1.0  0.5136925787159319  0.6564137506012225  0.8373324946442597  1.0000
  H   H27       1.0  0.2069758862805963  0.17842327247702025  0.9752152962531672  1.0000
  H   H28       1.0  0.7930241134974242  0.8215767272791353  0.0247847039812098  1.0000
  H   H29       1.0  0.19103913412825288  0.6911485363182616  0.20246859893635713  1.0000
  H   H30       1.0  0.8089608656497675  0.3088514634378941  0.7975314012980199  1.0000
  H   H31       1.0  0.24712561508287356  0.40029869711018434  0.9356170328720743  1.0000
  H   H32       1.0  0.7528743857705258  0.5997013026430517  0.06438296650159162  1.0000
  H   H33       1.0  0.3861701642035258  0.4827136739000716  0.02809002640351746  1.0000
  H   H34       1.0  0.6138298355744947  0.5172863258560839  0.9719099738308595  1.0000
  C   C1        1.0  0.13052904405244597  0.4913168258842857  0.3111439605726947  1.0000
  C   C2        1.0  0.8694709552010095  0.5086831749695093  0.6888560397247246  1.0000
  C   C3        1.0  0.034637046348696195  0.4051903132202003  0.3158709551988186  1.0000
  C   C4        1.0  0.96536295450411  0.5948096865328865  0.6841290448693793  1.0000
  C   C5        1.0  0.981885888543761  0.38843160185970255  0.23619075825290584  1.0000
  C   C6        1.0  0.018114111234852515  0.6115683978966021  0.7638092412869391  1.0000
  C   C7        1.0  0.899619096813251  0.30304824474948466  0.2407144035371721  1.0000
  C   C8        1.0  0.10038090403955513  0.6969517550036021  0.7592855965310258  1.0000
  C   C9        1.0  0.8636405120644312  0.236732135051716  0.32263246148309804  1.0000
  C   C10       1.0  0.13635948718961746  0.7632678658022283  0.6773675381197892  1.0000
  C   C11       1.0  0.9170887058219194  0.25676842063190286  0.40066871053306324  1.0000
  C   C12       1.0  0.08291129503088687  0.7432315791211839  0.5993312895351345  1.0000
  C   C13       1.0  0.0027404068527564687  0.3384159647897194  0.39867008886716  1.0000
  C   C14       1.0  0.9972595929252639  0.6615840349664361  0.6013299113672169  1.0000
  C   C15       1.0  0.5019471883980317  0.5765621404673061  0.327580898413589  1.0000
  C   C16       1.0  0.4980528124547746  0.42343785928578076  0.6724191016546089  1.0000
  C   C17       1.0  0.5770786411805442  0.6635150241390398  0.3612028634848366  1.0000
  C   C18       1.0  0.42292135967285527  0.33648497561419616  0.6387971358888294  1.0000
  C   C19       1.0  0.6699953652507017  0.7118512200773315  0.29278857049154056  1.0000
  C   C20       1.0  0.33000463507753963  0.28814878077339473  0.7072114296396995  1.0000
  C   C21       1.0  0.7346997608237621  0.7972322677117469  0.32312629840816864  1.0000
  C   C22       1.0  0.2653002395050725  0.20276773313912844  0.6768737010285396  1.0000
  C   C23       1.0  0.7108777396144572  0.836628932232438  0.4193681957939089  1.0000
  C   C24       1.0  0.2891222596389985  0.16337106862135695  0.5806318045035104  1.0000
  C   C25       1.0  0.6155883242346962  0.7885825012909677  0.4854379015728145  1.0000
  C   C26       1.0  0.38441167554332417  0.2114174984651878  0.5145620986615624  1.0000
  C   C27       1.0  0.5488856325214951  0.7024743578699713  0.4585996955110882  1.0000
  C   C28       1.0  0.45111436725711845  0.29752564188633346  0.5414003040287567  1.0000
  C   C29       1.0  0.22544683522840914  0.8120805428121549  0.08576277884557684  1.0000
  C   C30       1.0  0.7745531656243972  0.18791945694093196  0.914237221222621  1.0000
  C   C31       1.0  0.2599631026213813  0.9272092806705928  0.05524869744709419  1.0000
  C   C32       1.0  0.740036898231425  0.07279071908249407  0.9447513026211036  1.0000
  C   C33       1.0  0.2925014347691441  0.007185146762371221  0.11886506315595984  1.0000
  C   C34       1.0  0.7074985650094695  0.9928148529939333  0.8811349363838852  1.0000
  C   C35       1.0  0.2858459258138237  0.9659002076407608  0.2133136794665909  1.0000
  C   C36       1.0  0.7141540750389825  0.03409979211232603  0.786686320601607  1.0000
  C   C37       1.0  0.249452823487358  0.8512555216056348  0.24030999034535674  1.0000
  C   C38       1.0  0.7505471757660976  0.14874447924816014  0.7596900099520626  1.0000
  C   C39       1.0  0.32561287511661524  0.13302037164949024  0.0912074768459846  1.0000
  C   C40       1.0  0.6743871246619983  0.8669796281068146  0.9087925226938603  1.0000
  C   C41       1.0  0.27129731135660257  0.21178175085975784  0.01510418340642803  1.0000
  C   C42       1.0  0.7287026884214178  0.7882182488963977  0.9848958168279489  1.0000
  C   C43       1.0  0.29329585571545524  0.33676005396806274  0.9927419886410775  1.0000
  C   C44       1.0  0.7067041440625652  0.6632399457880929  0.007258011593299431  1.0000
  C   C45       1.0  0.3704052093366181  0.3842265810848442  0.0457116130942625  1.0000
  C   C46       1.0  0.6295947915161882  0.6157734186682424  0.9542883869739353  1.0000
  C   C47       1.0  0.42678983481112415  0.3061948793294352  0.12097538008893786  1.0000
  C   C48       1.0  0.5732101644423314  0.6938051215243598  0.8790246202084814  1.0000
  C   C49       1.0  0.4048396048134355  0.18125804003240456  0.14332586153118348  1.0000
  C   C50       1.0  0.595160395515399  0.8187419608184707  0.8566741379055247  1.0000
  N   N1        1.0  0.8519737692010421  0.27799959463301566  0.15497149158087137  1.0000
  N   N2        1.0  0.1480262316517644  0.722000405120071  0.8450285084873266  1.0000
  N   N3        1.0  0.8867964874543718  0.18532653496903326  0.4878285481721658  1.0000
  N   N4        1.0  0.11320351179908389  0.8146734658847617  0.5121714521252534  1.0000
  N   N5        1.0  0.8296769850602602  0.8511907137707564  0.25133124780282656  1.0000
  N   N6        1.0  0.1703230157931391  0.14880928598247958  0.7486687515708393  1.0000
  N   N7        1.0  0.5773404852437836  0.8381802049705315  0.5871979706419229  1.0000
  N   N8        1.0  0.42265951453423667  0.16181979478562414  0.412802029592454  1.0000
  N   N9        1.0  0.2222510839733288  0.7759426729163986  0.17659003059472916  1.0000
  N   N10       1.0  0.7777489158046917  0.2240573268397569  0.8234099696396479  1.0000
  O   O1        1.0  0.11618442046264756  0.5836191082556461  0.24988448981457315  1.0000
  O   O2        1.0  0.8838155803907519  0.41638089149758994  0.7501155095590927  1.0000
  O   O3        1.0  0.21771668205863487  0.4590719819392205  0.3709715533967109  1.0000
  O   O4        1.0  0.7822833177193856  0.540928017816935  0.629028446837666  1.0000
  O   O5        1.0  0.8804584771139424  0.34130608205730023  0.08319186994214726  1.0000
  O   O6        1.0  0.11954152373945684  0.6586939176959359  0.9168081294315188  1.0000
  O   O7        1.0  0.7891113182037673  0.19369852186588726  0.15842932593186354  1.0000
  O   O8        1.0  0.21088868264963195  0.8063014778873487  0.8415706734418024  1.0000
  O   O9        1.0  0.9465963406192659  0.1951460070860424  0.5534604259351887  1.0000
  O   O10       1.0  0.05340365863478279  0.8048539937679018  0.44653957366769853  1.0000
  O   O11       1.0  0.8034061630043184  0.1191090585861132  0.4915486516882045  1.0000
  O   O12       1.0  0.19659383677429526  0.8808909411701915  0.5084513478516405  1.0000
  O   O13       1.0  0.39347991186759707  0.5631180210271578  0.39712927252932756  1.0000
  O   O14       1.0  0.6065200889852093  0.43688197872592893  0.6028707275388703  1.0000
  O   O15       1.0  0.5388651347978818  0.5295692855699318  0.24275001239341065  1.0000
  O   O16       1.0  0.46113486498013867  0.47043071418622384  0.7572499878409662  1.0000
  O   O17       1.0  0.8483275961785144  0.8176399750084659  0.16562528428073045  1.0000
  O   O18       1.0  0.15167240359950593  0.18236002474768973  0.8343747159536465  1.0000
  O   O19       1.0  0.885306793476409  0.9265780256044369  0.2808680959505276  1.0000
  O   O20       1.0  0.11469320737639725  0.07342197414865016  0.7191319041176703  1.0000
  O   O21       1.0  0.6500567174088656  0.9036099239022044  0.6094178955851166  1.0000
  O   O22       1.0  0.3499432823691548  0.09639007585395104  0.39058210464926046  1.0000
  O   O23       1.0  0.47231790872005885  0.8169844951877049  0.6442948181490836  1.0000
  O   O24       1.0  0.5276820910585547  0.1830155045685999  0.3557051813907614  1.0000
