data_image0
_chemical_formula_structural       H20C20N2O6F2S2
_chemical_formula_sum              "H20 C20 N2 O6 F2 S2"
_cell_length_a       8.219680246960543
_cell_length_b       8.320995253518428
_cell_length_c       8.679755353105351
_cell_angle_alpha    91.3602024266532
_cell_angle_beta     117.15127701588321
_cell_angle_gamma    97.30242411354772

_space_group_name_H-M_alt    "P 1"
_space_group_IT_number       1

loop_
  _space_group_symop_operation_xyz
  'x, y, z'

loop_
  _atom_site_type_symbol
  _atom_site_label
  _atom_site_symmetry_multiplicity
  _atom_site_fract_x
  _atom_site_fract_y
  _atom_site_fract_z
  _atom_site_occupancy
  H   H1        1.0  0.2734360413442759  0.9286939045187933  0.11299920965789814  1.0000
  H   H2        1.0  0.7265639574477759  0.0713060945939266  0.8870007895862562  1.0000
  H   H3        1.0  0.8557065888320382  0.12077964612188823  0.3732322517837471  1.0000
  H   H4        1.0  0.14429341154183525  0.8792203542077162  0.6267677481701396  1.0000
  H   H5        1.0  0.8085858736836414  0.3206519765676501  0.564134966365571  1.0000
  H   H6        1.0  0.19141412647567588  0.6793480225451177  0.43586503346844485  1.0000
  H   H7        1.0  0.5496694800345632  0.4070384283811456  0.6524441651564346  1.0000
  H   H8        1.0  0.4503305203393102  0.5929615719484588  0.3475558347974521  1.0000
  H   H9        1.0  0.6765303524294987  0.3039129457916257  0.05961891696466321  1.0000
  H   H10       1.0  0.3234696465771092  0.6960870545379308  0.940381082399362  1.0000
  H   H11       1.0  0.7830041745286315  0.4556889639202228  0.24213650305405734  1.0000
  H   H12       1.0  0.21699582563068584  0.544311035192545  0.7578634967799585  1.0000
  H   H13       1.0  0.9183771809802236  0.38988319060756754  0.14358475207070226  1.0000
  H   H14       1.0  0.08162281939364971  0.6101168097220367  0.8564152478831845  1.0000
  H   H15       1.0  0.035270057464292896  0.670099531190772  0.1285867640463809  1.0000
  H   H16       1.0  0.9647299429095806  0.3299004691388323  0.8714132359075059  1.0000
  H   H17       1.0  0.9041752127271755  0.7506899960144436  0.22584289307244385  1.0000
  H   H18       1.0  0.09582478764669798  0.24931000431516084  0.7741571068814429  1.0000
  H   H19       1.0  0.8983371034292389  0.8295684234790546  0.03431466310108665  1.0000
  H   H20       1.0  0.10166289694593082  0.17043157685112142  0.9656853380054791  1.0000
  C   C1        1.0  0.2699479562665124  0.289477167366686  0.48679105482261537  1.0000
  C   C2        1.0  0.7300520427400954  0.7105228329628706  0.5132089445414099  1.0000
  C   C3        1.0  0.19812236107599576  0.1555232342090825  0.32980697051636415  1.0000
  C   C4        1.0  0.8018776379306122  0.844476766120474  0.6701930288476611  1.0000
  C   C5        1.0  0.3640613903579275  0.12270623756227883  0.32121416366322203  1.0000
  C   C6        1.0  0.6359386098013898  0.877293761550489  0.6787858361707938  1.0000
  C   C7        1.0  0.38873976959015244  0.011557483420820304  0.2138333626439444  1.0000
  C   C8        1.0  0.611260230569165  0.9884425156919476  0.7861666371900714  1.0000
  C   C9        1.0  0.5691051966457022  0.012238634128270576  0.241949903612118  1.0000
  C   C10       1.0  0.43089480372817107  0.9877613662013339  0.7580500963417687  1.0000
  C   C11       1.0  0.7191028131302415  0.12120053574430453  0.3643856171618519  1.0000
  C   C12       1.0  0.28089718724363183  0.8787994645852998  0.6356143827920349  1.0000
  C   C13       1.0  0.6926243818613895  0.23355386436000075  0.47057728860483533  1.0000
  C   C14       1.0  0.3073756185124838  0.7664461359696035  0.5294227113490515  1.0000
  C   C15       1.0  0.5146852032189191  0.2299125140454479  0.4507513145154234  1.0000
  C   C16       1.0  0.48531479715495435  0.7700874862841564  0.5492486854384634  1.0000
  C   C17       1.0  0.7809147454634365  0.4124762420173317  0.12067886153249771  1.0000
  C   C18       1.0  0.2190852546958807  0.587523757095436  0.879321138301518  1.0000
  C   C19       1.0  0.9098018700153316  0.7210164582093919  0.10476056851044863  1.0000
  C   C20       1.0  0.09019813035854186  0.27898354212021237  0.8952394314434382  1.0000
  N   N1        1.0  0.4563223533476406  0.3247267035979776  0.5462928382771889  1.0000
  N   N2        1.0  0.5436776470262328  0.6752732967316268  0.45370716167669783  1.0000
  O   O1        1.0  0.17384549610967148  0.34716085590048407  0.5420153438855307  1.0000
  O   O2        1.0  0.8261545040496457  0.6528391432122839  0.4579846559484849  1.0000
  O   O3        1.0  0.03491006569005918  0.09861564678693312  0.23862011014102194  1.0000
  O   O4        1.0  0.9650899346838142  0.9013843535426713  0.7613798898128649  1.0000
  O   O5        1.0  0.7391209674395511  0.5163278614270959  0.8188686604853246  1.0000
  O   O6        1.0  0.2608790327197663  0.48367213768567197  0.18113133934869136  1.0000
  F   F1        1.0  0.6014917593228782  0.9014250490350215  0.1437435310023481  1.0000
  F   F2        1.0  0.39850824083643904  0.09857495007774636  0.8562564688316677  1.0000
  S   S1        1.0  0.7137445044203798  0.5694703448126781  0.9757949385966237  1.0000
  S   S2        1.0  0.2862554959534935  0.43052965551692624  0.024205061357263136  1.0000
