data_image0
_chemical_formula_structural       H112C52N8O8Br16
_chemical_formula_sum              "H112 C52 N8 O8 Br16"
_cell_length_a       8.148030279119498
_cell_length_b       14.118481526243894
_cell_length_c       17.45216741501495
_cell_angle_alpha    90.0
_cell_angle_beta     90.0
_cell_angle_gamma    90.0

_space_group_name_H-M_alt    "P 1"
_space_group_IT_number       1

loop_
  _space_group_symop_operation_xyz
  'x, y, z'

loop_
  _atom_site_type_symbol
  _atom_site_label
  _atom_site_symmetry_multiplicity
  _atom_site_fract_x
  _atom_site_fract_y
  _atom_site_fract_z
  _atom_site_occupancy
  H   H1        1.0  0.6149427847415239  0.15114976607316033  0.618511817661861  1.0000
  H   H2        1.0  0.8850572154205709  0.8488502334845901  0.11851181751904068  1.0000
  H   H3        1.0  0.38505721536653936  0.651149766560327  0.8814881827665999  1.0000
  H   H4        1.0  0.11494278468749228  0.34885023370571483  0.38148818262377965  1.0000
  H   H5        1.0  0.7804221342053191  0.07163184639368628  0.6279947292145897  1.0000
  H   H6        1.0  0.7195778659567758  0.9283681538723555  0.12799472907176937  1.0000
  H   H7        1.0  0.21957786590274414  0.5716318461725616  0.8720052706408765  1.0000
  H   H8        1.0  0.2804221341512874  0.42836815338518885  0.37200527107105097  1.0000
  H   H9        1.0  0.8036875533932907  0.25762706869282387  0.5357856670544658  1.0000
  H   H10       1.0  0.6963124467688042  0.7423729308649265  0.0357856669116456  1.0000
  H   H11       1.0  0.1963124467147726  0.757627068471699  0.9642143333739951  1.0000
  H   H12       1.0  0.30368755333925906  0.24237293108605135  0.46421433323117467  1.0000
  H   H13       1.0  0.9486449982651862  0.1638369293255993  0.5372998526207391  1.0000
  H   H14       1.0  0.5513550018969087  0.8361630709404425  0.037299852477918845  1.0000
  H   H15       1.0  0.05135500184287707  0.6638369291044744  0.9627001478077218  1.0000
  H   H16       1.0  0.4486449982111545  0.3361630704532759  0.4627001476649014  1.0000
  H   H17       1.0  0.7376569237110774  0.05377306182600342  0.48080527996658634  1.0000
  H   H18       1.0  0.7623430764510174  0.9462269384400384  0.9808052801094066  1.0000
  H   H19       1.0  0.2623430763969858  0.5537730616048786  0.01919472017623394  1.0000
  H   H20       1.0  0.2376569236570458  0.4462269386611632  0.5191947203190542  1.0000
  H   H21       1.0  0.770459147174204  0.153442971609451  0.4210054244425036  1.0000
  H   H22       1.0  0.7295408529878907  0.8465570286565909  0.921005424585324  1.0000
  H   H23       1.0  0.22954085293385917  0.6534429713883262  0.07899457512732201  1.0000
  H   H24       1.0  0.2704591471201725  0.3465570281694242  0.5789945752701423  1.0000
  H   H25       1.0  0.5925012370623761  0.1470899420833457  0.47928674135933014  1.0000
  H   H26       1.0  0.9074987630997188  0.8529100581826962  0.9792867409291557  1.0000
  H   H27       1.0  0.40749876304568716  0.6470899418622209  0.020713258783490205  1.0000
  H   H28       1.0  0.09250123700834449  0.352910058403821  0.5207132589263106  1.0000
  H   H29       1.0  0.8051431125399464  0.3358079564850577  0.7382898395138368  1.0000
  H   H30       1.0  0.6948568876221486  0.6641920430726928  0.23828983994401118  1.0000
  H   H31       1.0  0.1948568875681169  0.8358079569722243  0.7617101603416295  1.0000
  H   H32       1.0  0.30514311248591475  0.1641920432938175  0.26171016019880916  1.0000
  H   H33       1.0  0.8059752081222828  0.33478667880918317  0.6372806635141066  1.0000
  H   H34       1.0  0.6940247920398119  0.6652133214568586  0.13728066337128633  1.0000
  H   H35       1.0  0.1940247919857803  0.8347866785880583  0.8627193363413597  1.0000
  H   H36       1.0  0.3059752080682513  0.16521332167798353  0.362719336771534  1.0000
  H   H37       1.0  0.5096705311272808  0.2913327344979908  0.7413167162761208  1.0000
  H   H38       1.0  0.9903294690348141  0.708667265768051  0.2413167161333005  1.0000
  H   H39       1.0  0.4903294689807825  0.7913327342768659  0.7586832835793453  1.0000
  H   H40       1.0  0.009670531073249144  0.20866726598917584  0.2586832834365251  1.0000
  H   H41       1.0  0.5058857931055005  0.28061109069241424  0.6403902474820733  1.0000
  H   H42       1.0  0.9941142070565944  0.7193889088653361  0.14039024733925295  1.0000
  H   H43       1.0  0.4941142070025627  0.7806110911795808  0.8596097529463876  1.0000
  H   H44       1.0  0.005885793051468932  0.21938890908646097  0.35960975280356733  1.0000
  H   H45       1.0  0.6021267977578225  0.46476236610876503  0.7227357416447975  1.0000
  H   H46       1.0  0.8978732024042724  0.5352376341572769  0.22273574150197722  1.0000
  H   H47       1.0  0.39787320235024065  0.9647623658876402  0.7772642587836635  1.0000
  H   H48       1.0  0.10212679770379092  0.03523763367011015  0.27726425864084314  1.0000
  H   H49       1.0  0.39919425414205645  0.43761023297834145  0.6946566447425759  1.0000
  H   H50       1.0  0.10080574591197515  0.5623897665794089  0.19465664459975557  1.0000
  H   H51       1.0  0.6008057459660068  0.9376102334655081  0.805343355685885  1.0000
  H   H52       1.0  0.899194254196088  0.06238976680053372  0.30534335554306474  1.0000
  H   H53       1.0  0.5551013699090926  0.4510478112085035  0.6240684186096933  1.0000
  H   H54       1.0  0.9448986290257116  0.5489521890575383  0.12406841903986772  1.0000
  H   H55       1.0  0.44489862897168003  0.9510478109873787  0.8759315812457729  1.0000
  H   H56       1.0  0.05510136985506108  0.04895218857037168  0.3759315811029526  1.0000
  H   H57       1.0  0.6011898351130512  0.14285356652916012  0.746268998588382  1.0000
  H   H58       1.0  0.8988101650490435  0.8571464330285903  0.24626899844556172  1.0000
  H   H59       1.0  0.39881016499501193  0.6428535670163268  0.7537310012670843  1.0000
  H   H60       1.0  0.10118983505901968  0.35714643324971507  0.2537310011242639  1.0000
  H   H61       1.0  0.7822434246880055  0.07471147432103657  0.7535722427625322  1.0000
  H   H62       1.0  0.7177565742467991  0.9252885252367138  0.25357224319270655  1.0000
  H   H63       1.0  0.21775657542005786  0.5747114748082032  0.7464277570929341  1.0000
  H   H64       1.0  0.2822434246339738  0.4252885254578386  0.2464277569501138  1.0000
  H   H65       1.0  0.7116969968632285  0.26184313398917697  0.8389379537697642  1.0000
  H   H66       1.0  0.7883030032988664  0.7381568662768648  0.33893795362694396  1.0000
  H   H67       1.0  0.2883030032448347  0.7618431337680522  0.661062046085702  1.0000
  H   H68       1.0  0.2116969968091969  0.23815686578969816  0.16106204594288162  1.0000
  H   H69       1.0  0.8994827509148624  0.19981642393737878  0.844405262083453  1.0000
  H   H70       1.0  0.6005172492472324  0.8001835756203716  0.34440526194063276  1.0000
  H   H71       1.0  0.10051724919320079  0.6998164244245454  0.6555947377720132  1.0000
  H   H72       1.0  0.39948275086083085  0.3001835758414964  0.15559473820218758  1.0000
  H   H73       1.0  0.5627076732581149  0.11970987367574529  0.8912040665286429  1.0000
  H   H74       1.0  0.9372923269039801  0.8802901265902965  0.39120406638582267  1.0000
  H   H75       1.0  0.43729232684994845  0.6197098734546205  0.6087959333268232  1.0000
  H   H76       1.0  0.06270767320408317  0.38029012610312984  0.10879593318400295  1.0000
  H   H77       1.0  0.7191535229092467  0.15882535142549178  0.9539532852335829  1.0000
  H   H78       1.0  0.7808464772528481  0.8411746481322586  0.45395328509076266  1.0000
  H   H79       1.0  0.28084647719881645  0.6588253519126585  0.5460467146218833  1.0000
  H   H80       1.0  0.21915352285521517  0.34117464835338335  0.04604671505205771  1.0000
  H   H81       1.0  0.7524607064497242  0.057407153063409315  0.8960994533289378  1.0000
  H   H82       1.0  0.7475392937123707  0.942592846494341  0.3960994531861175  1.0000
  H   H83       1.0  0.2475392936583391  0.557407153550576  0.6039005470995231  1.0000
  H   H84       1.0  0.2524607063956925  0.44259284671546584  0.10390054695670284  1.0000
  H   H85       1.0  0.022898292422664144  0.25011701672279385  0.7418326814159151  1.0000
  H   H86       1.0  0.4771017076313675  0.749882983543248  0.2418326812730947  1.0000
  H   H87       1.0  0.9771017076853991  0.7501170165016691  0.7581673184395512  1.0000
  H   H88       1.0  0.5228982924766957  0.2498829837643728  0.2581673188697256  1.0000
  H   H89       1.0  0.03120749448509392  0.23998487398959034  0.641202477256342  1.0000
  H   H90       1.0  0.4687925055689377  0.76001512556816  0.14120247768651656  1.0000
  H   H91       1.0  0.9687925056229694  0.739984874476757  0.858797522599124  1.0000
  H   H92       1.0  0.5312074945391256  0.2600151257892848  0.35879752245630375  1.0000
  H   H93       1.0  0.05324678298162681  0.07641278759295969  0.7572459944791721  1.0000
  H   H94       1.0  0.4467532170724048  0.9235872126730822  0.25724599433635187  1.0000
  H   H95       1.0  0.9467532171264363  0.5764127873718349  0.7427540053762941  1.0000
  H   H96       1.0  0.5532467830356584  0.4235872121859155  0.24275400523347376  1.0000
  H   H97       1.0  0.034092882633472356  0.058243285474537006  0.6575880575226632  1.0000
  H   H98       1.0  0.4659071174205593  0.9417567140832134  0.15758805737984286  1.0000
  H   H99       1.0  0.9659071174745909  0.5582432859617036  0.842411942332803  1.0000
  H   H100      1.0  0.534092882687504  0.44175671430433816  0.3424119427629775  1.0000
  H   H101      1.0  0.2896140035276116  0.1568418335841471  0.6358658684681483  1.0000
  H   H102      1.0  0.21038599652642007  0.8431581659736033  0.13586586832532793  1.0000
  H   H103      1.0  0.7103859965804517  0.6568418340713138  0.8641341319603127  1.0000
  H   H104      1.0  0.7896140035816431  0.34315816619472805  0.3641341318174924  1.0000
  H   H105      1.0  0.32673997871884386  0.05489339760507414  0.69167956867148  1.0000
  H   H106      1.0  0.17326002133518775  0.9451066026609677  0.1916795685286597  1.0000
  H   H107      1.0  0.6732600213892194  0.5548933973839493  0.808320431756981  1.0000
  H   H108      1.0  0.8267399787728754  0.44510660288209253  0.3083204316141606  1.0000
  H   H109      1.0  0.31159997607107137  0.1680452027075178  0.73707062934389  1.0000
  H   H110      1.0  0.1884000239829603  0.8319547975585241  0.23707062977406437  1.0000
  H   H111      1.0  0.6884000240369919  0.668045202486393  0.7629293705115763  1.0000
  H   H112      1.0  0.8115999761251029  0.3319547970713574  0.2629293703687559  1.0000
  C   C1        1.0  0.19466599971587292  0.09089870660768044  0.004278822121300171  1.0000
  C   C2        1.0  0.30533400033815866  0.9091012929500699  0.5042788222641205  1.0000
  C   C3        1.0  0.8053340003921903  0.5908987063865556  0.4957211774485254  1.0000
  C   C4        1.0  0.6946659997699045  0.40910129317119476  0.9957211775913458  1.0000
  C   C5        1.0  0.749367091289187  0.14642386903699717  0.6181683376884314  1.0000
  C   C6        1.0  0.7506329088729079  0.8535761312290446  0.118168337545611  1.0000
  C   C7        1.0  0.2506329088188763  0.6464238688158724  0.8818316621670349  1.0000
  C   C8        1.0  0.24936709123515532  0.3535761314501695  0.3818316620242146  1.0000
  C   C9        1.0  0.817142105750679  0.18055554949457697  0.5418572584780523  1.0000
  C   C10       1.0  0.6828578944114158  0.8194444507714649  0.0418572589082268  1.0000
  C   C11       1.0  0.18285789435738412  0.6805555492734522  0.958142741377414  1.0000
  C   C12       1.0  0.31714210569664747  0.3194444502842982  0.45814274123459353  1.0000
  C   C13       1.0  0.7244024417933114  0.1309846739936198  0.47714561417945606  1.0000
  C   C14       1.0  0.7755975583687835  0.869015326272422  0.9771456143222764  1.0000
  C   C15       1.0  0.2755975583147519  0.6309846737724949  0.022854385963364213  1.0000
  C   C16       1.0  0.2244024417392797  0.3690153264935469  0.5228543861061846  1.0000
  C   C17       1.0  0.7491347455644967  0.30246180455470545  0.6878144458820914  1.0000
  C   C18       1.0  0.7508652545975981  0.6975381957113364  0.18781444573927106  1.0000
  C   C19       1.0  0.2508652545435665  0.8024618043335807  0.8121855545463695  1.0000
  C   C20       1.0  0.2491347455104651  0.1975381959324612  0.3121855544035493  1.0000
  C   C21       1.0  0.5648790593961045  0.3182635116706798  0.6881749323391826  1.0000
  C   C22       1.0  0.9351209395386999  0.681736488595362  0.18817493219636217  1.0000
  C   C23       1.0  0.4351209407119588  0.8182635114495549  0.8118250675162837  1.0000
  C   C24       1.0  0.06487905934207282  0.1817364881081954  0.31182506794645815  1.0000
  C   C25       1.0  0.5285558070441283  0.4240670527401144  0.6816335259175491  1.0000
  C   C26       1.0  0.9714441931179666  0.5759329475259275  0.1816335257747288  1.0000
  C   C27       1.0  0.4714441930639349  0.9240670525189896  0.8183664745109118  1.0000
  C   C28       1.0  0.028555806990096685  0.07593294703876079  0.31836647436809157  1.0000
  C   C29       1.0  0.7336920489016663  0.14714973888220328  0.7571843471218889  1.0000
  C   C30       1.0  0.7663079512604286  0.8528502613838386  0.2571843475520633  1.0000
  C   C31       1.0  0.26630795120639694  0.6471497386610785  0.7428156527335773  1.0000
  C   C32       1.0  0.2336920488476347  0.35285026160496336  0.242815652590757  1.0000
  C   C33       1.0  0.767107048683604  0.19108864044515625  0.8348104475244353  1.0000
  C   C34       1.0  0.7328929502512004  0.8089113598208857  0.33481044738161503  1.0000
  C   C35       1.0  0.23289295019716874  0.6910886402240314  0.6651895529040256  1.0000
  C   C36       1.0  0.2671070498568629  0.30891135933371894  0.16518955276120528  1.0000
  C   C37       1.0  0.6960715713752714  0.1279800236761514  0.897454871795738  1.0000
  C   C38       1.0  0.803928427559533  0.8720199765898904  0.3974548716529177  1.0000
  C   C39       1.0  0.30392842750550136  0.6279800234550267  0.6025451280597282  1.0000
  C   C40       1.0  0.19607157254853028  0.37201997681101523  0.10254512791690788  1.0000
  C   C41       1.0  0.9920580242214699  0.203392705841785  0.6936018525461543  1.0000
  C   C42       1.0  0.5079419759406251  0.7966072937159654  0.19360185240333402  1.0000
  C   C43       1.0  0.007941975886593407  0.7033927056206603  0.8063981478823067  1.0000
  C   C44       1.0  0.49205802416743827  0.2966072939370901  0.3063981477394863  1.0000
  C   C45       1.0  0.07784257032345498  0.10846754568849273  0.7010009226403882  1.0000
  C   C46       1.0  0.4221574297305767  0.8915324545775491  0.20100092249756787  1.0000
  C   C47       1.0  0.9221574297846082  0.6084675454673679  0.798999077215078  1.0000
  C   C48       1.0  0.5778425703774865  0.39153245479867393  0.2989990770722577  1.0000
  C   C49       1.0  0.26229495310993756  0.12304538889474834  0.691159997675834  1.0000
  C   C50       1.0  0.23770504694409406  0.876954610663002  0.19115999810600842  1.0000
  C   C51       1.0  0.7377050469981257  0.6230453886736236  0.8088400021796323  1.0000
  C   C52       1.0  0.7622949531639691  0.37695461088412685  0.30884000203681194  1.0000
  N   N1        1.0  0.17219411832519815  0.9949867656721917  0.963161941452508  1.0000
  N   N2        1.0  0.3278058817288335  0.005013234593850139  0.46316194130968774  1.0000
  N   N3        1.0  0.8278058817828652  0.494986765185025  0.5368380589759529  1.0000
  N   N4        1.0  0.6721941183792298  0.5050132343727253  0.03683805883313257  1.0000
  N   N5        1.0  0.8059308182528776  0.19984154278598446  0.689141923979744  1.0000
  N   N6        1.0  0.6940691806819267  0.8001584574800573  0.18914192383692371  1.0000
  N   N7        1.0  0.19406918062789508  0.6998415425648596  0.8108580758757222  1.0000
  N   N8        1.0  0.30593081819884604  0.30015845699289073  0.31085807573290186  1.0000
  O   O1        1.0  0.0897055318845705  0.9940537588204623  0.9038716850967411  1.0000
  O   O2        1.0  0.41029446816946114  0.005946241445579503  0.4038716855269155  1.0000
  O   O3        1.0  0.9102944682234928  0.4940537583332957  0.5961283147587252  1.0000
  O   O4        1.0  0.5897055319386022  0.5059462412244548  0.09612831461590485  1.0000
  O   O5        1.0  0.23237905544511675  0.9240019265351299  0.9940970240219951  1.0000
  O   O6        1.0  0.26762094460891483  0.07599807373091183  0.49409702445216963  1.0000
  O   O7        1.0  0.7676209446629464  0.4240019267562548  0.5059029758334711  1.0000
  O   O8        1.0  0.7323790554991484  0.575998073509787  0.005902975690650727  1.0000
  Br  Br1       1.0  0.39659346729246586  0.09239123397054382  0.06471744472427367  1.0000
  Br  Br2       1.0  0.10340653276156574  0.9076087655872066  0.564717444867094  1.0000
  Br  Br3       1.0  0.6034065328155973  0.5923912344577104  0.43528255484555195  1.0000
  Br  Br4       1.0  0.8965934673464975  0.4076087658083314  0.9352825549883723  1.0000
  Br  Br5       1.0  0.9965713923288813  0.09794972975170296  0.07257992831940266  1.0000
  Br  Br6       1.0  0.5034286078332136  0.9020502698060473  0.572579928462223  1.0000
  Br  Br7       1.0  0.0034286077791820502  0.5979497295305781  0.4274200718234177  1.0000
  Br  Br8       1.0  0.49657139227484953  0.40205027002717225  0.927420071966238  1.0000
  Br  Br9       1.0  0.19717151323271837  0.19388568557544128  0.9297680416496336  1.0000
  Br  Br10      1.0  0.30282848682131325  0.8061143146906005  0.42976804150681325  1.0000
  Br  Br11      1.0  0.8028284868753448  0.6938856853543164  0.5702319587788274  1.0000
  Br  Br12      1.0  0.69717151328675  0.30611431491172536  0.07023195863600704  1.0000
  Br  Br13      1.0  0.20054913936532207  0.3813333084009303  0.827546435153632  1.0000
  Br  Br14      1.0  0.2994508606887096  0.6186666918651115  0.3275464355838064  1.0000
  Br  Br15      1.0  0.7994508607427412  0.8813333081798055  0.6724535647018343  1.0000
  Br  Br16      1.0  0.7005491394193537  0.11866669137794486  0.17245356455901392  1.0000
