data_image0
_chemical_formula_structural       H56C26N2F2Br8
_chemical_formula_sum              "H56 C26 N2 F2 Br8"
_cell_length_a       8.319318469769536
_cell_length_b       8.81866953688539
_cell_length_c       13.060895821540823
_cell_angle_alpha    90.0
_cell_angle_beta     96.95708412912408
_cell_angle_gamma    90.0

_space_group_name_H-M_alt    "P 1"
_space_group_IT_number       1

loop_
  _space_group_symop_operation_xyz
  'x, y, z'

loop_
  _atom_site_type_symbol
  _atom_site_label
  _atom_site_symmetry_multiplicity
  _atom_site_fract_x
  _atom_site_fract_y
  _atom_site_fract_z
  _atom_site_occupancy
  H   H1        1.0  0.5611782575878023  0.08333604938093182  0.8754880960979495  1.0000
  H   H2        1.0  0.06117825797099004  0.9166639509722518  0.3754880959596391  1.0000
  H   H3        1.0  0.4026913949868038  0.020971885750616218  0.9431871446359565  1.0000
  H   H4        1.0  0.9026913950650846  0.9790281134686095  0.4431871447598903  1.0000
  H   H5        1.0  0.37422562493871003  0.088438426764708  0.7097644343892046  1.0000
  H   H6        1.0  0.8742256250169909  0.9115615735884757  0.20976443451313825  1.0000
  H   H7        1.0  0.2099082133762902  0.03616617321535824  0.7754626857105346  1.0000
  H   H8        1.0  0.7099082133111622  0.9638338271378255  0.27546268506314775  1.0000
  H   H9        1.0  0.5160927179059593  0.8445914362531577  0.7621581316126963  1.0000
  H   H10       1.0  0.01609271708673141  0.15540856296606814  0.2621581314722899  1.0000
  H   H11       1.0  0.3181733455457919  0.8087359402877565  0.6985094662746874  1.0000
  H   H12       1.0  0.8181733456240727  0.19126406006542718  0.19850946639862121  1.0000
  H   H13       1.0  0.35651926332357675  0.7938053660725328  0.8347785068228184  1.0000
  H   H14       1.0  0.8565192632584486  0.206194633146693  0.3347785061754317  1.0000
  H   H15       1.0  0.34868594691263444  0.3279928392714861  0.7481693488055148  1.0000
  H   H16       1.0  0.8486859469909152  0.6720071610816976  0.24816934892944847  1.0000
  H   H17       1.0  0.3988273765901717  0.4723910191413425  0.8405576242461253  1.0000
  H   H18       1.0  0.8988273766684525  0.5276089800778833  0.3405576243700591  1.0000
  H   H19       1.0  0.6908484478386646  0.37527651038036747  0.861929935098964  1.0000
  H   H20       1.0  0.1908484470194367  0.6247234888388583  0.3619299349585577  1.0000
  H   H21       1.0  0.6368602125033266  0.2500505593022607  0.7573566654937879  1.0000
  H   H22       1.0  0.1368602128865143  0.749949439916965  0.25735666535547747  1.0000
  H   H23       1.0  0.541189205320147  0.47743627679771616  0.6460972401857094  1.0000
  H   H24       1.0  0.04118920584674367  0.5225637235554675  0.14609724081871958  1.0000
  H   H25       1.0  0.7495016622218097  0.48526902636510677  0.694766481766865  1.0000
  H   H26       1.0  0.24950166140258173  0.514730973988077  0.19476648162645865  1.0000
  H   H27       1.0  0.6078756654990769  0.5984663545816447  0.7519948235816852  1.0000
  H   H28       1.0  0.10787566588226459  0.401533645771539  0.2519948234433749  1.0000
  H   H29       1.0  0.4615020684505274  0.19875140719005024  0.05773196754315921  1.0000
  H   H30       1.0  0.9615020680673396  0.8012485920291755  0.5577319676814695  1.0000
  H   H31       1.0  0.6208631144815613  0.26151489749717016  0.9908881220848814  1.0000
  H   H32       1.0  0.12086311486474892  0.7384851028560134  0.49088812194657105  1.0000
  H   H33       1.0  0.3547719911241675  0.4673409841203308  0.058988985477549404  1.0000
  H   H34       1.0  0.8547719907409796  0.5326590162328529  0.5589889856158597  1.0000
  H   H35       1.0  0.5131603100625135  0.5297063077895794  0.9913587127637898  1.0000
  H   H36       1.0  0.01316031044570121  0.47029369256360426  0.49135871262547964  1.0000
  H   H37       1.0  0.5623372034270006  0.37602712360748897  0.20450404292527422  1.0000
  H   H38       1.0  0.06233720349212863  0.6239728767456947  0.7045040435726609  1.0000
  H   H39       1.0  0.579454929916248  0.573779231531007  0.17839433162239113  1.0000
  H   H40       1.0  0.07945492983796727  0.4262207676882188  0.6783943314984574  1.0000
  H   H41       1.0  0.7192125612398172  0.44265974290932697  0.13490732945852152  1.0000
  H   H42       1.0  0.2192125613049454  0.5573402563098988  0.6349073301059083  1.0000
  H   H43       1.0  0.19904476981531932  0.3998621668779999  0.9187461192964106  1.0000
  H   H44       1.0  0.6990447698936001  0.6001378334751838  0.4187461194203443  1.0000
  H   H45       1.0  0.14826922078841956  0.2436173609878541  0.8359441196244017  1.0000
  H   H46       1.0  0.6482692208667004  0.7563826382313716  0.33594411974833555  1.0000
  H   H47       1.0  0.20439576782530924  0.23287839411718395  0.07336125470858833  1.0000
  H   H48       1.0  0.7043957672987127  0.7671216062359997  0.573361254075578  1.0000
  H   H49       1.0  0.17220485042484343  0.07140542542910618  0.9939103821951377  1.0000
  H   H50       1.0  0.6722048505031243  0.9285945749240775  0.49391038231907153  1.0000
  H   H51       1.0  0.9351403647150283  0.33877990069862257  0.9991393240400009  1.0000
  H   H52       1.0  0.4351403638958003  0.6612200996545612  0.49913932389959453  1.0000
  H   H53       1.0  0.9124956140112204  0.15251147855972544  0.04845571015273165  1.0000
  H   H54       1.0  0.4124956139329396  0.8474885206595003  0.5484557100287979  1.0000
  H   H55       1.0  0.9056229920752144  0.18133704900850545  0.9135178183081726  1.0000
  H   H56       1.0  0.4056229924584023  0.8186629513446783  0.4135178181698624  1.0000
  C   C1        1.0  0.9077775596047744  0.7502274240266708  0.9200088028070171  1.0000
  C   C2        1.0  0.40777756013137106  0.24977257632651287  0.4200088034400274  1.0000
  C   C3        1.0  0.4295585457107818  0.08824240059627414  0.8765253007221266  1.0000
  C   C4        1.0  0.9295585457890625  0.9117575986229516  0.37652530084606034  1.0000
  C   C5        1.0  0.34177666052908834  0.02572947529680733  0.7771107962638002  1.0000
  C   C6        1.0  0.8417766606073691  0.9742705250563763  0.27711079638773395  1.0000
  C   C7        1.0  0.3860880078854844  0.8584672776698458  0.7675593659097402  1.0000
  C   C8        1.0  0.8860880079637653  0.14153272268333794  0.267559366033674  1.0000
  C   C9        1.0  0.43220763541440826  0.3584665370187444  0.8166568990480544  1.0000
  C   C10       1.0  0.9322076353492801  0.6415334633344393  0.3166568984006677  1.0000
  C   C11       1.0  0.6055425582344914  0.3583097809463892  0.7918504460004113  1.0000
  C   C12       1.0  0.10554255876108808  0.6416902194067944  0.2918504466334216  1.0000
  C   C13       1.0  0.6266235184205431  0.48781930335484225  0.7167664088376081  1.0000
  C   C14       1.0  0.12662351894713966  0.5121806969983415  0.2167664094706184  1.0000
  C   C15       1.0  0.4952771835998426  0.2850153199966388  0.0035091951225832943  1.0000
  C   C16       1.0  0.9952771830732459  0.7149846803565448  0.5035091944895731  1.0000
  C   C17       1.0  0.4802788254916391  0.4434988898995898  0.04590021663147816  1.0000
  C   C18       1.0  0.9802788251084513  0.5565011104535939  0.5459002167697885  1.0000
  C   C19       1.0  0.5919951622030821  0.4594229234981543  0.14721870719138877  1.0000
  C   C20       1.0  0.09199516226821026  0.5405770757210715  0.6472187078387756  1.0000
  C   C21       1.0  0.2139472538167165  0.27692501116926005  0.9106056777663437  1.0000
  C   C22       1.0  0.7139472538949972  0.7230749880499657  0.4106056778902776  1.0000
  C   C23       1.0  0.1472964279401114  0.1933724155177131  0.9977166456230976  1.0000
  C   C24       1.0  0.6472964280183922  0.8066275848354706  0.4977166457470313  1.0000
  C   C25       1.0  0.9642897989928624  0.21840654102571705  0.9892751607037241  1.0000
  C   C26       1.0  0.4642897981736344  0.7815934581935088  0.4892751605633179  1.0000
  N   N1        1.0  0.39278745483909694  0.25218575100223795  0.9016437670856099  1.0000
  N   N2        1.0  0.8927874549173777  0.7478142493509456  0.40164376720954365  1.0000
  F   F1        1.0  0.8943863879493692  0.6020159024889649  0.8867065344303652  1.0000
  F   F2        1.0  0.39438638833255685  0.3979840978642188  0.38670653429205487  1.0000
  Br  Br1       1.0  0.728520926770829  0.7935043762249262  0.002511976223203925  1.0000
  Br  Br2       1.0  0.2285209266925482  0.20649562299429958  0.5025119760992701  1.0000
  Br  Br3       1.0  0.12038873389078449  0.7755402140191212  0.0044518215106826  1.0000
  Br  Br4       1.0  0.6203887335075967  0.22445978633406247  0.5044518216489929  1.0000
  Br  Br5       1.0  0.8964878297714595  0.8860579464189476  0.7983968987943343  1.0000
  Br  Br6       1.0  0.396487830298056  0.11394205280027819  0.2983968994273445  1.0000
  Br  Br7       1.0  0.440076433316419  0.8615280262200782  0.13272657346407146  1.0000
  Br  Br8       1.0  0.9400764329332312  0.13847197299914768  0.6327265736023817  1.0000
