data_image0
_chemical_formula_structural       H32C42N6O12Br2
_chemical_formula_sum              "H32 C42 N6 O12 Br2"
_cell_length_a       6.2227592666927025
_cell_length_b       11.79698992039042
_cell_length_c       14.769071355565053
_cell_angle_alpha    66.97837730346787
_cell_angle_beta     87.09918692486283
_cell_angle_gamma    78.88635509281781

_space_group_name_H-M_alt    "P 1"
_space_group_IT_number       1

loop_
  _space_group_symop_operation_xyz
  'x, y, z'

loop_
  _atom_site_type_symbol
  _atom_site_label
  _atom_site_symmetry_multiplicity
  _atom_site_fract_x
  _atom_site_fract_y
  _atom_site_fract_z
  _atom_site_occupancy
  H   H1        1.0  0.45705158406669855  0.44086808890206536  0.39683723365333673  1.0000
  H   H2        1.0  0.5429484161667719  0.5591319108120131  0.6031627668198076  1.0000
  H   H3        1.0  0.1655945489245843  0.5897838097714317  0.438258991125337  1.0000
  H   H4        1.0  0.8344054512734649  0.41021619030350553  0.5617410086118654  1.0000
  H   H5        1.0  0.19760141179887145  0.815068509752876  0.3839002082948811  1.0000
  H   H6        1.0  0.8023985884345991  0.1849314899612021  0.6160997921782634  1.0000
  H   H7        1.0  0.8866712457648779  0.06843103989495224  0.14897419776126877  1.0000
  H   H8        1.0  0.1133287544331714  0.931568960179985  0.8510258019759335  1.0000
  H   H9        1.0  0.22079072139585515  0.9734205596864182  0.07954397605429281  1.0000
  H   H10       1.0  0.7792092771937763  0.026579440393692196  0.9204560236792095  1.0000
  H   H11       1.0  0.29190901813701353  0.7448731222206662  0.11669348566371647  1.0000
  H   H12       1.0  0.7080909820610357  0.25512687785427113  0.8833065140734859  1.0000
  H   H13       1.0  0.8114062176568346  0.3936803014521233  0.3546079550687174  1.0000
  H   H14       1.0  0.1885937825412146  0.6063196986228139  0.645392044668485  1.0000
  H   H15       1.0  0.9717276124318144  0.5117886343308838  0.3016950948924847  1.0000
  H   H16       1.0  0.02827238776623473  0.4882113657440533  0.6983049048447177  1.0000
  H   H17       1.0  0.700267820232422  0.42208708584401927  0.051811494299414645  1.0000
  H   H18       1.0  0.29973217996562734  0.577912914230918  0.9481885054377877  1.0000
  H   H19       1.0  0.9739535911102808  0.2970967480331071  0.9804441952193437  1.0000
  H   H20       1.0  0.026046409087768382  0.7029032520418301  0.019555804517858683  1.0000
  H   H21       1.0  0.46712494995239967  0.2711294062023056  0.1871642120377183  1.0000
  H   H22       1.0  0.5328750502456497  0.7288705938726318  0.8128357876994841  1.0000
  H   H23       1.0  0.19776344344182667  0.387328278635697  0.26100319685545753  1.0000
  H   H24       1.0  0.8022365567562224  0.6126717214392403  0.7389968028817449  1.0000
  H   H25       1.0  0.05214604911697962  0.08876009104396253  0.41289298806402647  1.0000
  H   H26       1.0  0.9478539510810695  0.9112399090309747  0.5871070116731759  1.0000
  H   H27       1.0  0.9633368244610899  0.11599972537573679  0.29243764320519877  1.0000
  H   H28       1.0  0.036663175736959375  0.8840002746992005  0.7075623565320036  1.0000
  H   H29       1.0  0.9027147826905213  0.9831901594573624  0.397710409999981  1.0000
  H   H30       1.0  0.09728521719789349  0.016809841483129195  0.6022895897338011  1.0000
  H   H31       1.0  0.48199109751578184  0.16780035895795725  0.47455414042440974  1.0000
  H   H32       1.0  0.5180089027176886  0.832199640756121  0.5254458600487347  1.0000
  C   C1        1.0  0.46643136187087647  0.5396892915558784  0.37455045040505647  1.0000
  C   C2        1.0  0.5335686383271729  0.4603107085190588  0.625449549332146  1.0000
  C   C3        1.0  0.305813557706626  0.6233424075420037  0.3962782494604597  1.0000
  C   C4        1.0  0.6941864424914234  0.3766575925329337  0.6037217502767428  1.0000
  C   C5        1.0  0.3226987169302339  0.7498157258228763  0.3651739819367391  1.0000
  C   C6        1.0  0.6773012832678152  0.2501842742520611  0.6348260178004632  1.0000
  C   C7        1.0  0.5714880131097297  0.9124920684623495  0.26517221609872027  1.0000
  C   C8        1.0  0.42851198708831945  0.08750793161258771  0.734827783638482  1.0000
  C   C9        1.0  0.9225844173794575  0.9690054972400626  0.16269641627918333  1.0000
  C   C10       1.0  0.07741558281859161  0.030994502834874597  0.8373035834580191  1.0000
  C   C11       1.0  0.10731976502071087  0.9158753038204508  0.12472358253030306  1.0000
  C   C12       1.0  0.8926802352127596  0.08412469589362756  0.8752764179428414  1.0000
  C   C13       1.0  0.14657773654184114  0.7875575389153432  0.14445958284956603  1.0000
  C   C14       1.0  0.8534222636916294  0.21244246079873494  0.8555404176235785  1.0000
  C   C15       1.0  0.8366719532501247  0.7616906569241472  0.23156745381666669  1.0000
  C   C16       1.0  0.16332804537492815  0.23830934279510407  0.7684325466527777  1.0000
  C   C17       1.0  0.7844358056758859  0.8892422586381552  0.2177861188336245  1.0000
  C   C18       1.0  0.21556419455758455  0.11075774107592322  0.78221388163952  1.0000
  C   C19       1.0  0.6624933067178415  0.6994583775796658  0.28974368089658553  1.0000
  C   C20       1.0  0.3375066932059948  0.30054162299996684  0.7102563195731385  1.0000
  C   C21       1.0  0.5033579432252582  0.7864308521877221  0.31105464488141016  1.0000
  C   C22       1.0  0.4966420553643732  0.2135691478923882  0.6889453548520922  1.0000
  C   C23       1.0  0.811008014872772  0.4883205671871587  0.29926735766589885  1.0000
  C   C24       1.0  0.18899198532527714  0.5116794328877786  0.7007326420713036  1.0000
  C   C25       1.0  0.7641887239003032  0.4926313070281341  0.1974707367300147  1.0000
  C   C26       1.0  0.2358112762977459  0.5073686930468031  0.8025292630071877  1.0000
  C   C27       1.0  0.9306713724289509  0.41506380255749714  0.15943966013839164  1.0000
  C   C28       1.0  0.06932862776909826  0.5849361975174401  0.8405603395988107  1.0000
  C   C29       1.0  0.8679776931565207  0.38827577376988004  0.08096543177150896  1.0000
  C   C30       1.0  0.13202230707694976  0.6117242259441983  0.9190345687016355  1.0000
  C   C31       1.0  0.018643491999165773  0.31881164135485474  0.04117776986144616  1.0000
  C   C32       1.0  0.981356508234305  0.6811883583592234  0.9588222306116982  1.0000
  C   C33       1.0  0.23356775474169758  0.2800658281976035  0.07908876045431776  1.0000
  C   C34       1.0  0.7664322454563516  0.7199341718773338  0.9209112392828847  1.0000
  C   C35       1.0  0.30064553488413165  0.30512417516863916  0.15686118787446515  1.0000
  C   C36       1.0  0.6993544653139175  0.6948758249062983  0.8431388118627371  1.0000
  C   C37       1.0  0.14615798057077095  0.3714422522052671  0.1982094316184771  1.0000
  C   C38       1.0  0.8538420193176437  0.6285577487352246  0.8017905681153049  1.0000
  C   C39       1.0  0.9191968666840041  0.0821136168095291  0.36991011208332875  1.0000
  C   C40       1.0  0.08080313354946658  0.9178863829045492  0.6300898883898157  1.0000
  C   C41       1.0  0.7113622673595128  0.16193711373320835  0.3831121623610322  1.0000
  C   C42       1.0  0.28863773283853644  0.838062886341729  0.6168878373761703  1.0000
  N   N1        1.0  0.6455655435190369  0.5778458349462492  0.322992386740472  1.0000
  N   N2        1.0  0.35443445671443347  0.42215416476782897  0.6770076137326725  1.0000
  N   N3        1.0  0.012865298891344395  0.7091722228946415  0.19706714290266883  1.0000
  N   N4        1.0  0.987134701306705  0.2908277771802956  0.8029328568345335  1.0000
  N   N5        1.0  0.39529475527090685  0.210610659313684  0.035166285806258794  1.0000
  N   N6        1.0  0.6047052449625636  0.7893893404003942  0.9648337146668857  1.0000
  O   O1        1.0  0.46674252069997907  0.012120161511007267  0.2637718183058293  1.0000
  O   O2        1.0  0.5332574794980702  0.98787983856393  0.736228181431373  1.0000
  O   O3        1.0  0.5973270386998665  0.55797779954605  0.14976239814610048  1.0000
  O   O4        1.0  0.40267296149818266  0.4420222005288873  0.850237601591102  1.0000
  O   O5        1.0  0.32856014757958796  0.15976987315278648  0.9851925711666354  1.0000
  O   O6        1.0  0.6714398526184613  0.8402301269221507  0.014807428570566912  1.0000
  O   O7        1.0  0.5917821021173497  0.20636302359334135  0.049639263361942396  1.0000
  O   O8        1.0  0.4082178981161208  0.7936369761207368  0.9503607371112022  1.0000
  O   O9        1.0  0.6284593996123271  0.26512965359501406  0.32056419452391127  1.0000
  O   O10       1.0  0.371540600585722  0.7348703464799234  0.679435805213291  1.0000
  O   O11       1.0  0.6248542042543337  0.11188444303459118  0.4714240444952904  1.0000
  O   O12       1.0  0.3751457956340812  0.8881155579059005  0.5285759552384915  1.0000
  Br  Br1       1.0  0.17393440556501447  0.2806994972696089  0.49483639008889535  1.0000
  Br  Br2       1.0  0.8260655943234003  0.7193005036708828  0.5051636096448865  1.0000
