data_image0
_chemical_formula_structural       H116C92N4O16Cl8
_chemical_formula_sum              "H116 C92 N4 O16 Cl8"
_cell_length_a       10.120224324162567
_cell_length_b       10.113195373215415
_cell_length_c       22.502243461702115
_cell_angle_alpha    90.0
_cell_angle_beta     90.0
_cell_angle_gamma    90.0

_space_group_name_H-M_alt    "P 1"
_space_group_IT_number       1

loop_
  _space_group_symop_operation_xyz
  'x, y, z'

loop_
  _atom_site_type_symbol
  _atom_site_label
  _atom_site_symmetry_multiplicity
  _atom_site_fract_x
  _atom_site_fract_y
  _atom_site_fract_z
  _atom_site_occupancy
  H   H1        1.0  0.6405417076104596  0.7081714251232678  0.3554803317106645  1.0000
  H   H2        1.0  0.8594582927606931  0.2918285745587895  0.8554803316728434  1.0000
  H   H3        1.0  0.359458292966349  0.20817142478783562  0.14451966825151447  1.0000
  H   H4        1.0  0.14054170781611544  0.7918285748942218  0.6445196682136934  1.0000
  H   H5        1.0  0.7429172288255718  0.733190312889455  0.45448779795694244  1.0000
  H   H6        1.0  0.7570827715455809  0.26680968778140945  0.9544877979191214  1.0000
  H   H7        1.0  0.2570827717512368  0.23319031255402278  0.04551220200523654  1.0000
  H   H8        1.0  0.24291722804310734  0.7668096871280347  0.5455122019674156  1.0000
  H   H9        1.0  0.6184703638491656  0.6651145599159309  0.5453718217424226  1.0000
  H   H10       1.0  0.8815296365219871  0.33488543976612645  0.0453718217802436  1.0000
  H   H11       1.0  0.38152963672764295  0.16511455958049864  0.9546281781441144  1.0000
  H   H12       1.0  0.11847036306670118  0.8348854401015587  0.4546281781819354  1.0000
  H   H13       1.0  0.3934788491291187  0.5707733823958279  0.5362825311413276  1.0000
  H   H14       1.0  0.10652115066522544  0.42922661827503666  0.03628253117914861  1.0000
  H   H15       1.0  0.6065211504595696  0.07077338206039563  0.9637174691896095  1.0000
  H   H16       1.0  0.8934788489234627  0.9292266176216617  0.4637174692274305  1.0000
  H   H17       1.0  0.41419270519449264  0.6119816498741509  0.3456968276625154  1.0000
  H   H18       1.0  0.08580729558797184  0.3880183498079064  0.8456968276246944  1.0000
  H   H19       1.0  0.585807295382316  0.11198165052752584  0.1543031722996636  1.0000
  H   H20       1.0  0.9141927049888366  0.8880183501433387  0.6543031722618425  1.0000
  H   H21       1.0  0.26426764608513814  0.416561990996183  0.4216687165503751  1.0000
  H   H22       1.0  0.23573235370920595  0.5834380086858744  0.9216687165125541  1.0000
  H   H23       1.0  0.7357323544916705  0.9165619913316153  0.07833128341180391  1.0000
  H   H24       1.0  0.7642676458794823  0.08343800835044207  0.5783312833739829  1.0000
  H   H25       1.0  0.2016664408443221  0.5236539337533074  0.4773266087126201  1.0000
  H   H26       1.0  0.2983335599381424  0.47634606592875  0.977326608674799  1.0000
  H   H27       1.0  0.7983335597324865  0.023653933417875105  0.022673391249558868  1.0000
  H   H28       1.0  0.7016664406386662  0.9763460662641822  0.522673391656138  1.0000
  H   H29       1.0  0.10478324748871107  0.6292061396196325  0.28083233704031707  1.0000
  H   H30       1.0  0.3952167523056331  0.37079386006242493  0.780832337002496  1.0000
  H   H31       1.0  0.8952167530880976  0.1292061392842002  0.21916766292186188  1.0000
  H   H32       1.0  0.6047832472830551  0.8707938603978572  0.7191676628840409  1.0000
  H   H33       1.0  0.9827391480102372  0.6851747330376036  0.3308438619762789  1.0000
  H   H34       1.0  0.5172608513727952  0.314825267633261  0.8308438623828581  1.0000
  H   H35       1.0  0.017260851578451034  0.1851747327021713  0.16915613798590004  1.0000
  H   H36       1.0  0.4827391482158931  0.814825266979886  0.669156137948079  1.0000
  H   H37       1.0  0.9656986868034378  0.42915997366122993  0.2573733214582294  1.0000
  H   H38       1.0  0.5343013125795946  0.5708400270096347  0.7573733214204084  1.0000
  H   H39       1.0  0.03430131278525044  0.929159973007855  0.24262667850394953  1.0000
  H   H40       1.0  0.46569868700909367  0.07084002667420236  0.7426266784661286  1.0000
  H   H41       1.0  0.9580625250421327  0.6368183143239686  0.19920513070748413  1.0000
  H   H42       1.0  0.5419374743408997  0.36318168535808876  0.699205130669663  1.0000
  H   H43       1.0  0.041937474546555546  0.1368183139885364  0.30079486925469484  1.0000
  H   H44       1.0  0.4580625252477885  0.8631816856935209  0.8007948692168738  1.0000
  H   H45       1.0  0.8315375519797439  0.7024943974498921  0.24529911514798233  1.0000
  H   H46       1.0  0.6684624483914088  0.29750560322097247  0.7452991151101613  1.0000
  H   H47       1.0  0.16846244760894427  0.20249439711445982  0.25470088481419667  1.0000
  H   H48       1.0  0.3315375521853998  0.7975056025675976  0.7547008847763756  1.0000
  H   H49       1.0  0.7428907511516175  0.7470166738801992  0.14832142384737756  1.0000
  H   H50       1.0  0.7571092492195353  0.2529833267906653  0.6483214238095565  1.0000
  H   H51       1.0  0.25710924942519114  0.24701667354476697  0.3516785761148014  1.0000
  H   H52       1.0  0.24289075135727337  0.7529833261372905  0.8516785760769804  1.0000
  H   H53       1.0  0.6875148472141943  0.6121572778467602  0.1022426174490413  1.0000
  H   H54       1.0  0.8124851531569585  0.38784272183529706  0.6022426178556204  1.0000
  H   H55       1.0  0.312485152374494  0.1121572785001352  0.39775738251313764  1.0000
  H   H56       1.0  0.18751484741985017  0.8878427221707293  0.8977573824753167  1.0000
  H   H57       1.0  0.8611932790058181  0.6458816465960572  0.11080332342166385  1.0000
  H   H58       1.0  0.6388067203772143  0.3541183530860002  0.6108033233838428  1.0000
  H   H59       1.0  0.13880672058287022  0.1458816472494321  0.38919667654051515  1.0000
  H   H60       1.0  0.36119327921147387  0.8541183534214325  0.8891966765026942  1.0000
  H   H61       1.0  0.7277722730330348  0.39276935660910534  0.12983821835242912  1.0000
  H   H62       1.0  0.7722277263499976  0.6072306440617592  0.6298382183146082  1.0000
  H   H63       1.0  0.27222772655565347  0.8927693559557305  0.37016178160974983  1.0000
  H   H64       1.0  0.22777227323869068  0.1072306437263269  0.8701617815719288  1.0000
  H   H65       1.0  0.7930671833861884  0.3502911957364538  0.20136337773217106  1.0000
  H   H66       1.0  0.7069328169849642  0.6497088039456036  0.7013633776943501  1.0000
  H   H67       1.0  0.20693281719062018  0.850291196071886  0.2986366222300079  1.0000
  H   H68       1.0  0.29306718260372394  0.14970880361017133  0.7986366221921869  1.0000
  H   H69       1.0  0.9007268769958119  0.41919314356646503  0.14649025620979822  1.0000
  H   H70       1.0  0.5992731233753409  0.5808068561155924  0.6464902561719772  1.0000
  H   H71       1.0  0.09927312358099676  0.9191931439018973  0.35350974375238076  1.0000
  H   H72       1.0  0.4007268772014677  0.08080685578016004  0.8535097437145598  1.0000
  H   H73       1.0  0.6108066374814779  0.6592429043403578  0.22693138347254097  1.0000
  H   H74       1.0  0.8891933628896749  0.34075709534169957  0.72693138343472  1.0000
  H   H75       1.0  0.38919336309533076  0.15924290499373273  0.27306861648963804  1.0000
  H   H76       1.0  0.1108066376871338  0.8407570956771319  0.773068616451817  1.0000
  H   H77       1.0  0.6331416493112383  0.4922064586217275  0.25199299037230655  1.0000
  H   H78       1.0  0.866858350071794  0.5077935410603298  0.7519929903344855  1.0000
  H   H79       1.0  0.3668583502774499  0.9922064589571599  0.24800700958987237  1.0000
  H   H80       1.0  0.1331416495168942  0.0077935417137047274  0.7480070095520513  1.0000
  H   H81       1.0  0.5619479260377555  0.5226147696106039  0.18077803428459996  1.0000
  H   H82       1.0  0.938052073345277  0.4773852300714535  0.680778034246779  1.0000
  H   H83       1.0  0.4380520735509328  0.022614769275171642  0.31922196567757904  1.0000
  H   H84       1.0  0.06194792624341133  0.9773852304068857  0.819221965639758  1.0000
  H   H85       1.0  0.64577213317263  0.4123203800693725  0.38802311799978806  1.0000
  H   H86       1.0  0.8542278662104023  0.587679620601492  0.8880231179619671  1.0000
  H   H87       1.0  0.35422786641605813  0.9123203794159976  0.11197688196239088  1.0000
  H   H88       1.0  0.145772133378286  0.08767962026605974  0.61197688236897  1.0000
  H   H89       1.0  0.7134629252002749  0.12136045776892528  0.35844990272760463  1.0000
  H   H90       1.0  0.7865370751708779  0.8786395419131321  0.8584499026897836  1.0000
  H   H91       1.0  0.2865370753765338  0.6213604581043576  0.1415500976789745  1.0000
  H   H92       1.0  0.21346292540593073  0.37863954256650695  0.6415500976411534  1.0000
  H   H93       1.0  0.5903151213492839  0.9526870919074033  0.40388484576962  1.0000
  H   H94       1.0  0.9096848790218689  0.04731290777465415  0.903884845731799  1.0000
  H   H95       1.0  0.4096848792275248  0.45268709157197096  0.09611515419255894  1.0000
  H   H96       1.0  0.09031512056681934  0.5473129081100864  0.5961151541547379  1.0000
  H   H97       1.0  0.42599343867377576  0.8727612731952701  0.4778791740611002  1.0000
  H   H98       1.0  0.0740065611205684  0.12723872648678738  0.9778791740232792  1.0000
  H   H99       1.0  0.5740065609149125  0.37276127285983773  0.022120825901078743  1.0000
  H   H100      1.0  0.9259934394562401  0.6272387268222197  0.5221208258632577  1.0000
  H   H101      1.0  0.31430436402537043  0.03365470332961502  0.5450786483079058  1.0000
  H   H102      1.0  0.1856956357689737  0.9663452963524425  0.045078648345726814  1.0000
  H   H103      1.0  0.6856956355633178  0.5336547036650473  0.9549213515786311  1.0000
  H   H104      1.0  0.8143043638197145  0.4663452960170101  0.4549213516164522  1.0000
  H   H105      1.0  0.3691182675744801  0.2729815224683285  0.5388402530012815  1.0000
  H   H106      1.0  0.13088173221986407  0.727018478202536  0.038840253039102504  1.0000
  H   H107      1.0  0.6308817320142083  0.7729815218149536  0.9611597468852554  1.0000
  H   H108      1.0  0.8691182673688241  0.22701847786710377  0.4611597469230765  1.0000
  H   H109      1.0  0.5302256726847829  0.3529879141319305  0.4645909590211683  1.0000
  H   H110      1.0  0.9697743276863698  0.6470120855501269  0.9645909589833472  1.0000
  H   H111      1.0  0.4697743278920257  0.8529879144673628  0.03540904138541081  1.0000
  H   H112      1.0  0.03022567289043882  0.1470120852146946  0.5354090413475898  1.0000
  H   H113      1.0  0.2512628908757332  0.4158427662871198  0.20891084651185304  1.0000
  H   H114      1.0  0.24873710990673129  0.5841572343837447  0.708910846474032  1.0000
  H   H115      1.0  0.7487371097010754  0.915842765633745  0.2910891534503259  1.0000
  H   H116      1.0  0.7512628906700773  0.08415723404831242  0.7910891534125049  1.0000
  C   C1        1.0  0.5859019592918612  0.6769954200759377  0.3947858614684115  1.0000
  C   C2        1.0  0.9140980410792916  0.32300457960611967  0.8947858614305906  1.0000
  C   C3        1.0  0.41409804029682706  0.1769954207293126  0.10521413893816761  1.0000
  C   C4        1.0  0.08590195949751708  0.8230045799415519  0.6052141389003466  1.0000
  C   C5        1.0  0.6443328972887749  0.6904684278614759  0.4507925255214841  1.0000
  C   C6        1.0  0.8556671020942574  0.3095315718205815  0.9507925259280633  1.0000
  C   C7        1.0  0.35566710229991344  0.19046842851485077  0.04920747444069487  1.0000
  C   C8        1.0  0.1443328974944307  0.8095315721560138  0.5492074744028739  1.0000
  C   C9        1.0  0.5748604263751245  0.651670088116236  0.5015004579079596  1.0000
  C   C10       1.0  0.9251395739960282  0.3483299125546286  0.0015004575013804445  1.0000
  C   C11       1.0  0.42513957420168413  0.1516700877808037  0.9984995424229776  1.0000
  C   C12       1.0  0.07486042658078042  0.8483299119012536  0.49849954246079853  1.0000
  C   C13       1.0  0.44748616779052863  0.5992862894799437  0.4962734413129172  1.0000
  C   C14       1.0  0.052513832991935856  0.4007137102021138  0.9962734412750962  1.0000
  C   C15       1.0  0.55251383278628  0.09928628914451133  0.0037265586492617638  1.0000
  C   C16       1.0  0.9474861675848728  0.900713710537546  0.5037265586114408  1.0000
  C   C17       1.0  0.3890412310920584  0.5846413771120625  0.44019700954967506  1.0000
  C   C18       1.0  0.1109587687022857  0.415358623558802  0.940197009511854  1.0000
  C   C19       1.0  0.6109587694847503  0.08464137677663026  0.05980299041250389  1.0000
  C   C20       1.0  0.8890412308864026  0.9153586229054271  0.5598029903746828  1.0000
  C   C21       1.0  0.4590846369785832  0.6241493076182014  0.38940633607993086  1.0000
  C   C22       1.0  0.04091536380388128  0.3758506930526631  0.8894063360421098  1.0000
  C   C23       1.0  0.5409153635982253  0.12414930728276916  0.11059366388224816  1.0000
  C   C24       1.0  0.9590846367729274  0.8758506923992883  0.6105936638444271  1.0000
  C   C25       1.0  0.2557164601402396  0.5208468466801963  0.4349967662850798  1.0000
  C   C26       1.0  0.24428353965410457  0.47915315300186107  0.9349967662472588  1.0000
  C   C27       1.0  0.7442835394484487  0.020846846344764  0.06500323367709919  1.0000
  C   C28       1.0  0.7557164599345837  0.9791531533372935  0.5650032340836783  1.0000
  C   C29       1.0  0.0905430858693761  0.5145331844158334  0.3591487330476464  1.0000
  C   C30       1.0  0.409456913924968  0.48546681526622404  0.8591487330098254  1.0000
  C   C31       1.0  0.9094569137193121  0.014533185069208227  0.14085126691453256  1.0000
  C   C32       1.0  0.5905430856637202  0.9854668156016564  0.6408512668767116  1.0000
  C   C33       1.0  0.026670585686087035  0.5955929207056267  0.31121967335919437  1.0000
  C   C34       1.0  0.473329414108257  0.40440707996523784  0.8112196733213733  1.0000
  C   C35       1.0  0.9733294148907217  0.09559292037019443  0.1887803266029846  1.0000
  C   C36       1.0  0.5266705854804311  0.9044070793118629  0.6887803265651636  1.0000
  C   C37       1.0  0.9229963655744308  0.5198802946025128  0.2758916243425268  1.0000
  C   C38       1.0  0.5770036338086015  0.48011970606835175  0.7758916243047057  1.0000
  C   C39       1.0  0.07700363401425742  0.019880294267080552  0.2241083756196522  1.0000
  C   C40       1.0  0.4229963657800867  0.9801197054149768  0.7241083755818313  1.0000
  C   C41       1.0  0.8728861700139225  0.6108156791235779  0.22699297377585265  1.0000
  C   C42       1.0  0.6271138303572303  0.3891843205584795  0.7269929741824318  1.0000
  C   C43       1.0  0.1271138305628862  0.11081567878814563  0.27300702618632633  1.0000
  C   C44       1.0  0.3728861702195783  0.8891843208939118  0.7730070261485052  1.0000
  C   C45       1.0  0.7644559638395348  0.6471627174665273  0.13244373944634966  1.0000
  C   C46       1.0  0.7355440355434976  0.35283728221553  0.6324437394085286  1.0000
  C   C47       1.0  0.23554403574915345  0.1471627171310951  0.36755626051582935  1.0000
  C   C48       1.0  0.2644559640451907  0.8528372825509623  0.8675562604780083  1.0000
  C   C49       1.0  0.7997728717016117  0.41943830248098246  0.16413321615180082  1.0000
  C   C50       1.0  0.700227128669541  0.580561698189882  0.6641332165583799  1.0000
  C   C51       1.0  0.20022712887519684  0.9194383018276076  0.33586678381037816  1.0000
  C   C52       1.0  0.2997728719072677  0.08056169785444979  0.8358667837725572  1.0000
  C   C53       1.0  0.6336149382272324  0.5575890954242605  0.2135326181221818  1.0000
  C   C54       1.0  0.8663850611557998  0.44241090425779694  0.7135326180843607  1.0000
  C   C55       1.0  0.3663850613614558  0.05758909607763536  0.28646738228439733  1.0000
  C   C56       1.0  0.1336149384328883  0.9424109045932292  0.7864673822465762  1.0000
  C   C57       1.0  0.7916531435841425  0.35016477179695527  0.3219142794507861  1.0000
  C   C58       1.0  0.7083468567870103  0.6498352288739092  0.8219142794129651  1.0000
  C   C59       1.0  0.20834685699266617  0.8501647711435804  0.17808572051139282  1.0000
  C   C60       1.0  0.29165314378979834  0.149835228538477  0.6780857204735717  1.0000
  C   C61       1.0  0.6916941142586034  0.32624329484806464  0.3674778901078742  1.0000
  C   C62       1.0  0.808305885124429  0.6737567058227999  0.8674778900700532  1.0000
  C   C63       1.0  0.30830588533008485  0.8262432941946898  0.13252211029870495  1.0000
  C   C64       1.0  0.19169411446425924  0.17375670548736763  0.6325221102608839  1.0000
  C   C65       1.0  0.6619153267192336  0.2003032083573742  0.3824097865906342  1.0000
  C   C66       1.0  0.8380846726637988  0.7996967913246833  0.8824097865528132  1.0000
  C   C67       1.0  0.33808467286945476  0.7003032086928065  0.11759021337154477  1.0000
  C   C68       1.0  0.1619153269248894  0.2996967919780581  0.6175902133337238  1.0000
  C   C69       1.0  0.5690945433145405  0.15840118883124812  0.42786477607827483  1.0000
  C   C70       1.0  0.9309054570566122  0.8415988108508093  0.9278647760404538  1.0000
  C   C71       1.0  0.4309054572622682  0.6584011891666804  0.07213522388390413  1.0000
  C   C72       1.0  0.06909454253207595  0.34159881150418414  0.5721352238460831  1.0000
  C   C73       1.0  0.5396706787378389  0.022624915425444952  0.4329353678259018  1.0000
  C   C74       1.0  0.9603293206451934  0.9773750842566125  0.9329353677880807  1.0000
  C   C75       1.0  0.46032932085084927  0.5226249157608772  0.06706463213627716  1.0000
  C   C76       1.0  0.03967067894349482  0.4773750839211802  0.5670646325428563  1.0000
  C   C77       1.0  0.4476534723823802  0.9780883761227129  0.4745753030436823  1.0000
  C   C78       1.0  0.05234652741196393  0.021911623559344433  0.9745753030058613  1.0000
  C   C79       1.0  0.5523465281944284  0.47808837677608784  0.02542469691849669  1.0000
  C   C80       1.0  0.9476534721767242  0.5219116238947766  0.5254246968806756  1.0000
  C   C81       1.0  0.38550089158451845  0.06839615615772267  0.5122999717614826  1.0000
  C   C82       1.0  0.11449910919794609  0.9316038435243348  0.012299971799303607  1.0000
  C   C83       1.0  0.6144991089922902  0.5683961564931549  0.9877000281250543  1.0000
  C   C84       1.0  0.8855008913788626  0.4316038441777096  0.4877000281628754  1.0000
  C   C85       1.0  0.4160177111833326  0.20317854191189197  0.5085573751558005  1.0000
  C   C86       1.0  0.08398228959913194  0.7968214587589726  0.008557375193621443  1.0000
  C   C87       1.0  0.5839822893934761  0.7031785412585171  0.9914426247307365  1.0000
  C   C88       1.0  0.9160177109776767  0.29682145842354035  0.49144262476855755  1.0000
  C   C89       1.0  0.5067702775871409  0.24793130731368415  0.4668329479182249  1.0000
  C   C90       1.0  0.9932297227840118  0.7520686923683733  0.9668329478804039  1.0000
  C   C91       1.0  0.4932297229896677  0.7479313076491164  0.0331670520439541  1.0000
  C   C92       1.0  0.0067702768046764275  0.2520686930217481  0.5331670520061331  1.0000
  N   N1        1.0  0.7681072831004898  0.5563475096013212  0.18521358668495824  1.0000
  N   N2        1.0  0.7318927162825426  0.4436524900807362  0.6852135866471373  1.0000
  N   N3        1.0  0.23189271648819842  0.05634751025469602  0.31478641327722073  1.0000
  N   N4        1.0  0.26810728330614564  0.9436524904161686  0.8147864132393996  1.0000
  O   O1        1.0  0.1783298741403481  0.5895232208991171  0.3902464207600283  1.0000
  O   O2        1.0  0.321670125653996  0.41047677878294037  0.8902464207222073  1.0000
  O   O3        1.0  0.8216701254483402  0.08952322056368477  0.10975357920215066  1.0000
  O   O4        1.0  0.6783298739346922  0.9104767791183725  0.6097535791643297  1.0000
  O   O5        1.0  0.06960003725592173  0.3978697781965902  0.3693905882827585  1.0000
  O   O6        1.0  0.4303999635265428  0.6021302224742743  0.8693905882449375  1.0000
  O   O7        1.0  0.9303999633208868  0.8978697775432153  0.1306094116794205  1.0000
  O   O8        1.0  0.5696000370502659  0.10213022213884206  0.6306094116415996  1.0000
  O   O9        1.0  0.8168059763521122  0.48273095098407254  0.31617319322443405  1.0000
  O   O10       1.0  0.6831940240190406  0.5172690486979848  0.816173193186613  1.0000
  O   O11       1.0  0.1831940242246965  0.9827309513195047  0.18382680673774499  1.0000
  O   O12       1.0  0.3168059755696476  0.01726904836255258  0.683826806699924  1.0000
  O   O13       1.0  0.8452592280564738  0.2650006729918353  0.29143587176813623  1.0000
  O   O14       1.0  0.6547407723146791  0.7349993276790293  0.7914358717303152  1.0000
  O   O15       1.0  0.1547407725203349  0.7650006723384604  0.20856412819404274  1.0000
  O   O16       1.0  0.3452592272740092  0.234999327343597  0.7085641281562217  1.0000
  Cl  Cl1       1.0  0.34523477524685314  0.42343917940531856  0.259569003861368  1.0000
  Cl  Cl2       1.0  0.154765224547491  0.5765608202767388  0.759569003823547  1.0000
  Cl  Cl3       1.0  0.6547652253299555  0.9234391797407508  0.24043099610081095  1.0000
  Cl  Cl4       1.0  0.8452347750411972  0.07656082093011371  0.7404309960629899  1.0000
  Cl  Cl5       1.0  0.14886323679635066  0.4014670368925263  0.1528040355554801  1.0000
  Cl  Cl6       1.0  0.35113676299799346  0.598532962789531  0.6528040355176591  1.0000
  Cl  Cl7       1.0  0.8511367627923375  0.9014670372279586  0.347195964851099  1.0000
  Cl  Cl8       1.0  0.6488632365906948  0.09853296245409877  0.847195964813278  1.0000
