data_image0
_chemical_formula_structural       H100C98N12O4F6I6
_chemical_formula_sum              "H100 C98 N12 O4 F6 I6"
_cell_length_a       9.540224725336142
_cell_length_b       11.415832734987019
_cell_length_c       22.23860725615285
_cell_angle_alpha    101.53229100542235
_cell_angle_beta     98.02324711682651
_cell_angle_gamma    100.0674462020536

_space_group_name_H-M_alt    "P 1"
_space_group_IT_number       1

loop_
  _space_group_symop_operation_xyz
  'x, y, z'

loop_
  _atom_site_type_symbol
  _atom_site_label
  _atom_site_symmetry_multiplicity
  _atom_site_fract_x
  _atom_site_fract_y
  _atom_site_fract_z
  _atom_site_occupancy
  H   H1        1.0  0.1520771221944331  0.2672492543633034  0.6802097418258328  1.0000
  H   H2        1.0  0.8479228780849143  0.7327507458792819  0.31979025833936536  1.0000
  H   H3        1.0  0.23740127928748825  0.3418866237601756  0.6291120475448153  1.0000
  H   H4        1.0  0.762598720799564  0.6581133762684671  0.3708879521537583  1.0000
  H   H5        1.0  0.507379905172372  0.3248614565739493  0.763997186200254  1.0000
  H   H6        1.0  0.4926200951069754  0.675138543668636  0.23600281396494427  1.0000
  H   H7        1.0  0.6023008547032718  0.9540656590327661  0.626008057931518  1.0000
  H   H8        1.0  0.397699144526825  0.045934341207673444  0.37399194223178  1.0000
  H   H9        1.0  0.17047275396574016  0.12559965162832784  0.5586529262115292  1.0000
  H   H10       1.0  0.8295272452643566  0.8744003486121116  0.44134707395176903  1.0000
  H   H11       1.0  0.5360777523352466  0.7939379186250693  0.5358199080810763  1.0000
  H   H12       1.0  0.4639222467110516  0.20606208072655735  0.4641800920841167  1.0000
  H   H13       1.0  0.44647223954388116  0.8288507005935276  0.46826392898038705  1.0000
  H   H14       1.0  0.5535277603593725  0.1711492985463025  0.5317360707200816  1.0000
  H   H15       1.0  0.34604987833169853  0.7419878208552408  0.5112750796444665  1.0000
  H   H16       1.0  0.6539501217553539  0.2580121791734019  0.48872492005410717  1.0000
  H   H17       1.0  0.10132411603517527  0.9708968237528495  0.4687265485831311  1.0000
  H   H18       1.0  0.8986758842441723  0.029103176489735927  0.5312734515820671  1.0000
  H   H19       1.0  0.13536059025568123  0.8271297759322702  0.47811019271850763  1.0000
  H   H20       1.0  0.8646394098398675  0.17287022342150254  0.5218898074485856  1.0000
  H   H21       1.0  0.24240995053074807  0.9124043394535213  0.4365254728424195  1.0000
  H   H22       1.0  0.7575900497485994  0.08759566078906396  0.5634745273227787  1.0000
  H   H23       1.0  0.14290520342712193  0.303485004050991  0.8167120529248684  1.0000
  H   H24       1.0  0.8570947966599303  0.6965149959776517  0.1832879467737052  1.0000
  H   H25       1.0  0.05409777788683692  0.306238391061653  0.7423979990438038  1.0000
  H   H26       1.0  0.9459022222002155  0.6937616089669898  0.25760200065476985  1.0000
  H   H27       1.0  0.03563093492230905  0.4140281773300694  0.807437085804714  1.0000
  H   H28       1.0  0.9643690649809447  0.5859718218097606  0.1925629138957545  1.0000
  H   H29       1.0  0.2946319848199533  0.657661367286277  0.9219628492285877  1.0000
  H   H30       1.0  0.7053680154593942  0.3423386329563083  0.07803715093661054  1.0000
  H   H31       1.0  0.12495826739448876  0.5814242769841235  0.8756559908734665  1.0000
  H   H32       1.0  0.8750417326925636  0.4185757230445193  0.12434400882510717  1.0000
  H   H33       1.0  0.017217646772141593  0.43943671771397425  0.9329256576813386  1.0000
  H   H34       1.0  0.9827823533234072  0.5605632816397983  0.06707434248575456  1.0000
  H   H35       1.0  0.3198979552141033  0.13854979612288024  0.9757635309068026  1.0000
  H   H36       1.0  0.6801020448729491  0.8614502039057625  0.024236468791771167  1.0000
  H   H37       1.0  0.5395339089938014  0.507395740151054  0.9036056977224507  1.0000
  H   H38       1.0  0.46046609109325093  0.49260425987758866  0.09639430197612278  1.0000
  H   H39       1.0  0.5360929063494585  0.06744685968745767  0.9754905060147784  1.0000
  H   H40       1.0  0.4639070935537952  0.9325531394523723  0.024509493685690158  1.0000
  H   H41       1.0  0.6978063478564325  0.18156311868056982  0.9957302575444358  1.0000
  H   H42       1.0  0.3021936522306199  0.8184368813480729  0.004269742154137746  1.0000
  H   H43       1.0  0.635409693094521  0.10368285282987115  0.9175300182884467  1.0000
  H   H44       1.0  0.36459030613557586  0.8963171474105682  0.08246998187485143  1.0000
  H   H45       1.0  0.7448039451735804  0.29208335803415664  0.8829054787294528  1.0000
  H   H46       1.0  0.255196055105767  0.7079166422084286  0.11709452143574535  1.0000
  H   H47       1.0  0.799323745926736  0.35296890316870894  0.9637326025248751  1.0000
  H   H48       1.0  0.2006762543526113  0.6470310970738764  0.036267397640323176  1.0000
  H   H49       1.0  0.7638446704043429  0.45189732868797794  0.9135374126608241  1.0000
  H   H50       1.0  0.2361553296827094  0.5481026713406647  0.0864625870377494  1.0000
  H   H51       1.0  0.47732433313755085  0.8270638954471683  0.8813055890879545  1.0000
  H   H52       1.0  0.5226756669495016  0.17293610458147435  0.11869441061061904  1.0000
  H   H53       1.0  0.6265525213694061  0.7553193128968839  0.8808398152791094  1.0000
  H   H54       1.0  0.37344747890994134  0.24468068734570142  0.11916018488608891  1.0000
  H   H55       1.0  0.49567272385965283  0.7158116015196905  0.9252862014908116  1.0000
  H   H56       1.0  0.5043272760436008  0.2841883976201397  0.07471379820965708  1.0000
  H   H57       1.0  0.5761654264583254  0.7442286875914795  0.7142488282545517  1.0000
  H   H58       1.0  0.4238345736372233  0.2557713117622932  0.28575117191254146  1.0000
  H   H59       1.0  0.6101949949101775  0.8114569303396637  0.7946064229279666  1.0000
  H   H60       1.0  0.38980500431991927  0.1885430699007756  0.20539357723533136  1.0000
  H   H61       1.0  0.7294982011160812  0.5784794001899561  0.8338610068049659  1.0000
  H   H62       1.0  0.2705017991632662  0.42152060005262915  0.1661389933602324  1.0000
  H   H63       1.0  0.16717200290634138  0.6265344615140227  0.7322112118055719  1.0000
  H   H64       1.0  0.8328279971892073  0.3734655378397499  0.2677887883615212  1.0000
  H   H65       1.0  0.7592259843658039  0.8289534601538046  0.6712279160280605  1.0000
  H   H66       1.0  0.24077401553744976  0.17104653898602545  0.32877208367240796  1.0000
  H   H67       1.0  0.29443201565359606  0.7036958150311313  0.6613104967685336  1.0000
  H   H68       1.0  0.7055679835765006  0.29630418520930796  0.33868950339476445  1.0000
  H   H69       1.0  0.2640222021667769  0.8447016820061962  0.6459870407439053  1.0000
  H   H70       1.0  0.7359777977364768  0.1552983171336338  0.35401295895656326  1.0000
  H   H71       1.0  0.18310148652531844  0.7072774947584917  0.5908150634438977  1.0000
  H   H72       1.0  0.816898513754029  0.2927225054840935  0.40918493672130046  1.0000
  H   H73       1.0  0.8784017349782187  0.9058490992653546  0.6000524561927362  1.0000
  H   H74       1.0  0.12159826511733003  0.09415090008841807  0.3999475439743571  1.0000
  H   H75       1.0  0.9864355900132824  0.8135609908500365  0.5617761701714118  1.0000
  H   H76       1.0  0.013564408840720663  0.18643900828764756  0.4382238295271566  1.0000
  H   H77       1.0  0.0701862138832871  0.9444275446751501  0.621044302830255  1.0000
  H   H78       1.0  0.9298137863960603  0.05557245556743516  0.37895569733494316  1.0000
  H   H79       1.0  0.42899672024584257  0.5645576901256505  0.6280453385364521  1.0000
  H   H80       1.0  0.5710032800335049  0.4354423101169348  0.3719546616287462  1.0000
  H   H81       1.0  0.46179606992983757  0.41926488405717743  0.6332924850221932  1.0000
  H   H82       1.0  0.5382039301657112  0.5807351152965952  0.36670751514489996  1.0000
  H   H83       1.0  0.5968967173346288  0.5500097965643914  0.6678127452813508  1.0000
  H   H84       1.0  0.4031032829447187  0.4499902036781938  0.3321872548838474  1.0000
  H   H85       1.0  0.8770160144828875  0.26933906428430526  0.657795800746919  1.0000
  H   H86       1.0  0.12298398542036616  0.7306609348555249  0.3422041989535495  1.0000
  H   H87       1.0  0.7085967166605894  0.31554799237273595  0.6408242768421969  1.0000
  H   H88       1.0  0.2914032825695074  0.6844520078677034  0.35917572332110115  1.0000
  H   H89       1.0  0.8535637085505953  0.41517631229107216  0.6963176690904238  1.0000
  H   H90       1.0  0.14643629135265826  0.5848236868487579  0.3036823306100447  1.0000
  H   H91       1.0  0.8520243988324772  0.4631361235963598  0.4924813286551082  1.0000
  H   H92       1.0  0.14797560144687033  0.5368638766462255  0.50751867151009  1.0000
  H   H93       1.0  0.9384173178942152  0.5938212193081418  0.552255843314643  1.0000
  H   H94       1.0  0.06158268238513221  0.40617878093444343  0.44774415685055535  1.0000
  H   H95       1.0  0.6136166089759751  0.5308013078763862  0.4930536539391018  1.0000
  H   H96       1.0  0.38638339111957354  0.4691986914773864  0.5069463462279914  1.0000
  H   H97       1.0  0.7477547448464168  0.6460842589069135  0.4784987082231465  1.0000
  H   H98       1.0  0.2522452554329306  0.3539157413356718  0.5215012919420519  1.0000
  H   H99       1.0  0.7002403869348479  0.6609839544755585  0.5540409347196911  1.0000
  H   H100      1.0  0.2997596131522044  0.33901604555308423  0.44595906497888255  1.0000
  C   C1        1.0  0.3044454352128052  0.4369154596645967  0.7260699632473028  1.0000
  C   C2        1.0  0.6955545650665422  0.5630845405779886  0.27393003691789547  1.0000
  C   C3        1.0  0.24273593427806453  0.45342584629390953  0.7803690294678486  1.0000
  C   C4        1.0  0.7572640649520322  0.5465741539465299  0.2196309706954495  1.0000
  C   C5        1.0  0.30494904504081494  0.555849827636971  0.8300659102121449  1.0000
  C   C6        1.0  0.695050953813188  0.44415017150071323  0.16993408948642347  1.0000
  C   C7        1.0  0.42753590916009665  0.6404118963135403  0.8257193277236943  1.0000
  C   C8        1.0  0.5724640911192508  0.3595881039290449  0.17428067244150391  1.0000
  C   C9        1.0  0.47787862350566085  0.6284387313506765  0.7685794928903925  1.0000
  C   C10       1.0  0.5221213767736866  0.37156126889190877  0.2314205072748058  1.0000
  C   C11       1.0  0.4191235406599269  0.526528463008334  0.7189400895925236  1.0000
  C   C12       1.0  0.5808764594271254  0.4734715370203087  0.28105991010604997  1.0000
  C   C13       1.0  0.25482981733452215  0.3214921280328  0.6754812677957942  1.0000
  C   C14       1.0  0.7451701829448253  0.6785078722097853  0.324518732369404  1.0000
  C   C15       1.0  0.48114636594409055  0.2543974162099736  0.7210074656467925  1.0000
  C   C16       1.0  0.5188536343352569  0.7456025840326117  0.2789925345184057  1.0000
  C   C17       1.0  0.5092232590944851  0.9916790668840987  0.6111270326691199  1.0000
  C   C18       1.0  0.4907767411848625  0.008320933358486613  0.38887296749607836  1.0000
  C   C19       1.0  0.4132621350936869  0.9345315350690154  0.5554400967175356  1.0000
  C   C20       1.0  0.5867378651856605  0.06546846517356987  0.44455990344766266  1.0000
  C   C21       1.0  0.2909759033912746  0.9835519702000012  0.5364302899633384  1.0000
  C   C22       1.0  0.7090240968880728  0.016448030042584025  0.46356971020185983  1.0000
  C   C23       1.0  0.2645954118779957  0.08896258623694778  0.5732473631303424  1.0000
  C   C24       1.0  0.7354045884013518  0.9110374140056375  0.4267526370348557  1.0000
  C   C25       1.0  0.3603786670434531  0.14349344279091092  0.6291566858478606  1.0000
  C   C26       1.0  0.6396213330435991  0.8565065572377316  0.370843313850713  1.0000
  C   C27       1.0  0.48278912334955243  0.09683160711154276  0.6484606259927115  1.0000
  C   C28       1.0  0.517210876929795  0.9031683931310426  0.3515393741724868  1.0000
  C   C29       1.0  0.4369902803034506  0.8190800523470391  0.5158096575618433  1.0000
  C   C30       1.0  0.5630097199758968  0.18091994789554616  0.4841903426033549  1.0000
  C   C31       1.0  0.18720028001481076  0.92045818102138  0.47697623650631427  1.0000
  C   C32       1.0  0.8127997200722415  0.07954181900726257  0.5230237631922593  1.0000
  C   C33       1.0  0.11269895439333351  0.36448569551472076  0.7869704746364984  1.0000
  C   C34       1.0  0.8873010458860139  0.6355143047278645  0.2130295255286998  1.0000
  C   C35       1.0  0.23820917759328125  0.57326929311624  0.8882681958206394  1.0000
  C   C36       1.0  0.7617908225022675  0.4267307062375327  0.11173180434645372  1.0000
  C   C37       1.0  0.11872149647586895  0.4083218057641915  0.9358081204474167  1.0000
  C   C38       1.0  0.8812785036196799  0.5916781935895811  0.06419187971967663  1.0000
  C   C39       1.0  0.36711936653809574  0.21820428713678325  0.9596721989231122  1.0000
  C   C40       1.0  0.6328806337412517  0.7817957131058019  0.04032780124208603  1.0000
  C   C41       1.0  0.51013841674315  0.23569872235193856  0.9501620009430627  1.0000
  C   C42       1.0  0.4898615833523988  0.7643012770018341  0.049837999224030344  1.0000
  C   C43       1.0  0.5723066082303032  0.34119977990209993  0.9302341273277223  1.0000
  C   C44       1.0  0.42769339204904433  0.6588002203404854  0.06976587283747605  1.0000
  C   C45       1.0  0.490300459595909  0.4265761648383297  0.9181010781866462  1.0000
  C   C46       1.0  0.5096995404911433  0.573423835190313  0.08189892151192751  1.0000
  C   C47       1.0  0.34646622569367336  0.4063374873299835  0.9265532655424069  1.0000
  C   C48       1.0  0.6535337735364236  0.5936625129104559  0.07344673462089121  1.0000
  C   C49       1.0  0.28481459173256396  0.3042581218645723  0.9483476498614228  1.0000
  C   C50       1.0  0.7151854083544884  0.6957418781640703  0.0516523498371507  1.0000
  C   C51       1.0  0.5990092277876171  0.14271720108228353  0.9604467696983245  1.0000
  C   C52       1.0  0.4009907723079315  0.8572827982714891  0.03955323046876854  1.0000
  C   C53       1.0  0.7277793890162186  0.36088255647435885  0.922094598767649  1.0000
  C   C54       1.0  0.27222061107083356  0.6391174435542838  0.07790540093092463  1.0000
  C   C55       1.0  0.5099304093725862  0.7393573854671183  0.8809000698192293  1.0000
  C   C56       1.0  0.49006959090676133  0.2606426147754671  0.11909993034596894  1.0000
  C   C57       1.0  0.5993586489935683  0.724839037329173  0.7606685371427775  1.0000
  C   C58       1.0  0.4006413512857792  0.27516096291341224  0.2393314630224208  1.0000
  C   C59       1.0  0.7915566962410359  0.6150198482724838  0.8018539564645634  1.0000
  C   C60       1.0  0.20844330403831168  0.3849801519701016  0.19814604370063493  1.0000
  C   C61       1.0  0.07795973369613783  0.6695938986180214  0.7190978652673462  1.0000
  C   C62       1.0  0.9220402653501604  0.33040610073360543  0.28090213489784693  1.0000
  C   C63       1.0  0.08340972533310732  0.7362479385164332  0.6729204835104359  1.0000
  C   C64       1.0  0.916590274753945  0.2637520615122094  0.3270795161881377  1.0000
  C   C65       1.0  0.9676586376737858  0.7935174162867605  0.6554936302363975  1.0000
  C   C66       1.0  0.03234136241326645  0.20648258374188205  0.344506369462176  1.0000
  C   C67       1.0  0.8461851552736023  0.782975387138101  0.6839401569608725  1.0000
  C   C68       1.0  0.15381484500574524  0.21702461310448423  0.3160598432043258  1.0000
  C   C69       1.0  0.8424850002201357  0.71575397544506  0.7296981956625248  1.0000
  C   C70       1.0  0.15751499986691664  0.2842460245835826  0.27030180403604875  1.0000
  C   C71       1.0  0.956596201664302  0.6588028461167107  0.748072538675309  1.0000
  C   C72       1.0  0.04340379756579471  0.3411971541237287  0.25192746148798895  1.0000
  C   C73       1.0  0.21277363503924043  0.748538200336828  0.641287707561058  1.0000
  C   C74       1.0  0.787226365240107  0.2514617999057571  0.35871229260414017  1.0000
  C   C75       1.0  0.9757841292936678  0.8679210384928274  0.607123707232121  1.0000
  C   C76       1.0  0.024215870985679597  0.13207896174975792  0.3928762929330773  1.0000
  C   C77       1.0  0.479887146591538  0.5141753078027959  0.6593535217066148  1.0000
  C   C78       1.0  0.5201128526385588  0.48582469243764353  0.34064647845668333  1.0000
  C   C79       1.0  0.1738079936534803  0.9730299204632833  0.8226281929255227  1.0000
  C   C80       1.0  0.8261920055766165  0.02697007977715616  0.17737180723777532  1.0000
  C   C81       1.0  0.14268919146988313  0.9150909338218085  0.8703130741087983  1.0000
  C   C82       1.0  0.8573108086171692  0.08490906620683422  0.12968692558977524  1.0000
  C   C83       1.0  0.011251805655796336  0.9072258033992489  0.8913684236047444  1.0000
  C   C84       1.0  0.988748194431256  0.09277419662939367  0.10863157609382901  1.0000
  C   C85       1.0  0.9101043477069051  0.9628063550930456  0.862654786376768  1.0000
  C   C86       1.0  0.08989565257244228  0.03719364514953964  0.13734521378843023  1.0000
  C   C87       1.0  0.9329011216296661  0.020814578203934907  0.814313366469963  1.0000
  C   C88       1.0  0.06709887846588268  0.9791854211498376  0.18568663369713018  1.0000
  C   C89       1.0  0.0656720547788673  0.02318674147192717  0.7948258979558792  1.0000
  C   C90       1.0  0.9343279455004802  0.9768132587706582  0.2051741022093191  1.0000
  C   C91       1.0  0.8265610013648182  0.34627277337561574  0.6518283649305943  1.0000
  C   C92       1.0  0.1734389987307305  0.6537272259781569  0.3481716352364989  1.0000
  C   C93       1.0  0.8823726966700117  0.4023010822905998  0.6019423572784436  1.0000
  C   C94       1.0  0.1176273036093357  0.5976989179519856  0.3980576428867547  1.0000
  C   C95       1.0  0.8344764071435142  0.5302627804076088  0.5321103114797234  1.0000
  C   C96       1.0  0.16552359313583317  0.4697372198349765  0.4678896886854748  1.0000
  C   C97       1.0  0.7166004525355126  0.5956757946445691  0.5134357643122758  1.0000
  C   C98       1.0  0.28339954756003605  0.40432420470920344  0.48656423585481734  1.0000
  N   N1        1.0  0.36253624344039337  0.24398667712573344  0.6762392361698117  1.0000
  N   N2        1.0  0.6374637566466589  0.7560133229029092  0.32376076352876193  1.0000
  N   N3        1.0  0.5563146812970196  0.16910215512938387  0.7058095926419233  1.0000
  N   N4        1.0  0.443685318982328  0.8308978451132014  0.2941904075232749  1.0000
  N   N5        1.0  0.23698837496641487  0.4706170958586445  0.9185720520791307  1.0000
  N   N6        1.0  0.7630116242636819  0.5293829043817949  0.08142794808416737  1.0000
  N   N7        1.0  0.1422050138185777  0.3090392231606882  0.9542141010499835  1.0000
  N   N8        1.0  0.8577949864607697  0.6909607770818971  0.045785899115214704  1.0000
  N   N9        1.0  0.738405497604541  0.6865117926242776  0.7648600572781723  1.0000
  N   N10       1.0  0.2615945024910078  0.31348820672949496  0.2351399428889209  1.0000
  N   N11       1.0  0.9213316978894768  0.5963694300961967  0.7936015947956006  1.0000
  N   N12       1.0  0.0786683022060719  0.4036305692575758  0.20639840537149254  1.0000
  O   O1        1.0  0.995576090977683  0.3919184899536699  0.5831139667558513  1.0000
  O   O2        1.0  0.00442390910936949  0.6080815100749728  0.4168860329427223  1.0000
  O   O3        1.0  0.790061498347828  0.4673948521470399  0.5793260342309818  1.0000
  O   O4        1.0  0.20993850193151944  0.5326051480955454  0.42067396593421635  1.0000
  F   F1        1.0  0.2459057552580575  0.8644561754684996  0.8975676147497839  1.0000
  F   F2        1.0  0.7540942448374913  0.13554382388527306  0.10243238541730929  1.0000
  F   F3        1.0  0.7802329236925133  0.9579647494317681  0.8819629747439289  1.0000
  F   F4        1.0  0.2197670753452883  0.042035250594728714  0.11803702495274444  1.0000
  F   F5        1.0  0.09137080298315858  0.07614433216345641  0.7467022224797406  1.0000
  F   F6        1.0  0.908629196054643  0.9238556678630403  0.25329777721693275  1.0000
  I   I1        1.0  0.3757411268590661  0.9912748542904705  0.7953481941838942  1.0000
  I   I2        1.0  0.6242588732279861  0.008725145738172208  0.20465180551467932  1.0000
  I   I3        1.0  0.9624051786870577  0.8139337155287875  0.9620164805666314  1.0000
  I   I4        1.0  0.037594821592289836  0.18606628471379774  0.03798351959856675  1.0000
  I   I5        1.0  0.76968594706645  0.09489033093004696  0.768882507533739  1.0000
  I   I6        1.0  0.23031405321289738  0.9051096693125383  0.23111749263145925  1.0000
