data_image0
_chemical_formula_structural       H76C68O20
_chemical_formula_sum              "H76 C68 O20"
_cell_length_a       7.425528055945441
_cell_length_b       14.601988356412116
_cell_length_c       14.463591183338451
_cell_angle_alpha    105.38475437152957
_cell_angle_beta     102.4329019520964
_cell_angle_gamma    96.26826307709193

_space_group_name_H-M_alt    "P 1"
_space_group_IT_number       1

loop_
  _space_group_symop_operation_xyz
  'x, y, z'

loop_
  _atom_site_type_symbol
  _atom_site_label
  _atom_site_symmetry_multiplicity
  _atom_site_fract_x
  _atom_site_fract_y
  _atom_site_fract_z
  _atom_site_occupancy
  H   H1        1.0  0.4225547545563581  0.7627259739472267  0.6836524003696519  1.0000
  H   H2        1.0  0.577445246444103  0.23727402612008391  0.3163475996948808  1.0000
  H   H3        1.0  0.2715966150437202  0.355831031436625  0.5121121791215643  1.0000
  H   H4        1.0  0.7284033845770619  0.6441689686288246  0.48788782079058257  1.0000
  H   H5        1.0  0.9276482533038963  0.6717787167195135  0.29423100144390857  1.0000
  H   H6        1.0  0.07235174769656469  0.3282212833477972  0.7057689986206243  1.0000
  H   H7        1.0  0.9894516178215793  0.7899147185070882  0.6207121649397807  1.0000
  H   H8        1.0  0.010548381799202644  0.21008528155836112  0.3792878349723661  1.0000
  H   H9        1.0  0.061620820168960914  0.1195868277856837  0.9569189845520184  1.0000
  H   H10       1.0  0.9383791794518211  0.8804131722797657  0.043081015360128386  1.0000
  H   H11       1.0  0.6399174584541067  0.055449081324274424  0.6617773020327253  1.0000
  H   H12       1.0  0.3600825411666754  0.944550918741175  0.3382226978794216  1.0000
  H   H13       1.0  0.9312924304694988  0.8370460914194598  0.3376416603480541  1.0000
  H   H14       1.0  0.06870756915128311  0.16295390864598966  0.6623583395640927  1.0000
  H   H15       1.0  0.1372676957901148  0.9107589142634676  0.4245314075017547  1.0000
  H   H16       1.0  0.8627323052103462  0.08924108580384323  0.575468592562778  1.0000
  H   H17       1.0  0.9353554470046611  0.8855792633261461  0.46469480806144253  1.0000
  H   H18       1.0  0.064644552616121  0.11442073673930321  0.5353051918507044  1.0000
  H   H19       1.0  0.42558635100003045  0.56708880207903  0.645626793799871  1.0000
  H   H20       1.0  0.5744136500004305  0.43291119798828065  0.3543732062646618  1.0000
  H   H21       1.0  0.9248304150050259  0.570300115293258  0.19586478186241893  1.0000
  H   H22       1.0  0.07516958461575607  0.42969988477219145  0.8041352180497279  1.0000
  H   H23       1.0  0.7034308942988395  0.37617877388230786  0.18280118837683237  1.0000
  H   H24       1.0  0.2965691053219426  0.6238212261831416  0.8171988115353145  1.0000
  H   H25       1.0  0.6472348170018194  0.4412592511335557  0.09614389533943522  1.0000
  H   H26       1.0  0.35276518399864165  0.558740748933755  0.9038561047250975  1.0000
  H   H27       1.0  0.6420135593440678  0.4925282663202212  0.22163526508094197  1.0000
  H   H28       1.0  0.3579864402767143  0.5074717337452284  0.7783647348312048  1.0000
  H   H29       1.0  0.9584234282115134  0.4666408329218841  0.04943067346175921  1.0000
  H   H30       1.0  0.04157657140926868  0.5333591671435655  0.9505693264503876  1.0000
  H   H31       1.0  0.9995378265519941  0.37112657383557285  0.10077036976490684  1.0000
  H   H32       1.0  0.0004621730687879588  0.6288734262298766  0.8992296301472401  1.0000
  H   H33       1.0  0.17027826287331024  0.4788508340796324  0.14028553953468284  1.0000
  H   H34       1.0  0.8297217367474717  0.521149165985817  0.859714460377464  1.0000
  H   H35       1.0  0.687695907897883  0.9284161463940858  0.5363193990507802  1.0000
  H   H36       1.0  0.312304093102578  0.0715838536732249  0.46368060101375264  1.0000
  H   H37       1.0  0.4881926473675937  0.8428500062484212  0.45779564754122115  1.0000
  H   H38       1.0  0.5118073522529306  0.15714999381265934  0.5422043530611054  1.0000
  H   H39       1.0  0.6258986479722989  0.8175304179752636  0.5605216152529274  1.0000
  H   H40       1.0  0.3741013516484832  0.1824695820901858  0.4394783846592195  1.0000
  H   H41       1.0  0.8966645670743557  0.9313585917901964  0.7698004592998042  1.0000
  H   H42       1.0  0.10333543254642645  0.06864140827525307  0.23019954061234266  1.0000
  H   H43       1.0  0.6510872608102186  0.18404053543538967  0.7026042437826653  1.0000
  H   H44       1.0  0.34891273881056345  0.8159594646300597  0.29739575612948155  1.0000
  H   H45       1.0  0.9060261657181407  0.2936152711212726  0.8325618018028802  1.0000
  H   H46       1.0  0.09397383390264145  0.7063847289441768  0.16743819810926652  1.0000
  H   H47       1.0  0.8487677901037797  0.1875615258161985  0.8662088197186586  1.0000
  H   H48       1.0  0.15123221089668135  0.8124384742511122  0.13379118034587406  1.0000
  H   H49       1.0  0.7767938570969648  0.29594686239166185  0.9233057149318215  1.0000
  H   H50       1.0  0.2232061425238172  0.7040531376737875  0.07669428498032534  1.0000
  H   H51       1.0  0.5304050499236688  0.3648457974612419  0.814402641908057  1.0000
  H   H52       1.0  0.46959494969711324  0.6351542026042074  0.1855973580040898  1.0000
  H   H53       1.0  0.41025268352260175  0.29231285496234743  0.6923538694787619  1.0000
  H   H54       1.0  0.5897473160981803  0.7076871451031019  0.307646130433385  1.0000
  H   H55       1.0  0.6450407340989187  0.34864663747079855  0.7168084967266707  1.0000
  H   H56       1.0  0.3549592669015424  0.6513533625965123  0.28319150333786197  1.0000
  H   H57       1.0  0.25466032170738967  0.32863134684238254  0.19943437772558295  1.0000
  H   H58       1.0  0.7453396779133924  0.6713686532230669  0.8005656221865639  1.0000
  H   H59       1.0  0.23748864301086903  0.2581632221706105  0.28250091243314046  1.0000
  H   H60       1.0  0.7625113566099131  0.7418367778948389  0.7174990874790066  1.0000
  H   H61       1.0  0.09024658984006882  0.21813700245552267  0.1588705218362518  1.0000
  H   H62       1.0  0.9097534097807133  0.7818629976099267  0.8411294780758951  1.0000
  H   H63       1.0  0.21984821661385248  0.3381053168556889  0.8747744736816225  1.0000
  H   H64       1.0  0.7801517830069296  0.6618946832097605  0.1252255262305244  1.0000
  H   H65       1.0  0.40647564623372096  0.421784969448063  0.9681348697185025  1.0000
  H   H66       1.0  0.5935243533870611  0.5782150306173865  0.03186513019364431  1.0000
  H   H67       1.0  0.2523115854051193  0.33944573968489905  0.001470015552297316  1.0000
  H   H68       1.0  0.7476884142156628  0.6605542603805504  0.9985299843598495  1.0000
  H   H69       1.0  0.7322246124918182  0.9825050140776921  0.9121854067286147  1.0000
  H   H70       1.0  0.26777538712896387  0.017494985987757422  0.08781459318353221  1.0000
  H   H71       1.0  0.24599117006796428  0.7891586049607374  0.8213216969415449  1.0000
  H   H72       1.0  0.7540088295528179  0.21084139510471198  0.178678302970602  1.0000
  H   H73       1.0  0.39537807494370464  0.7962237409044337  0.938247694260252  1.0000
  H   H74       1.0  0.6046219246770774  0.2037762591610157  0.0617523056518948  1.0000
  H   H75       1.0  0.28337624484557317  0.8950984044737333  0.9272968172899356  1.0000
  H   H76       1.0  0.7166237547752089  0.10490159559171618  0.07270318262221141  1.0000
  C   C1        1.0  0.2616320742397714  0.689883236803321  0.5470750677368615  1.0000
  C   C2        1.0  0.7383679253807528  0.31011676325775944  0.45292493286546504  1.0000
  C   C3        1.0  0.20577261640498073  0.7723835925510842  0.5263209012532087  1.0000
  C   C4        1.0  0.7942273832158014  0.2276164075143652  0.47367909865893815  1.0000
  C   C5        1.0  0.08262643777126412  0.7653202318361448  0.43405586784376804  1.0000
  C   C6        1.0  0.9173735632291968  0.23467976823116574  0.5659441322207647  1.0000
  C   C7        1.0  0.02463944167572285  0.6760472188225699  0.36379316671738277  1.0000
  C   C8        1.0  0.9753605579450592  0.3239527812428794  0.6362068331947641  1.0000
  C   C9        1.0  0.02709129469406867  0.500753375564478  0.3023533009638588  1.0000
  C   C10       1.0  0.9729087049267133  0.4992466245009715  0.697646698948288  1.0000
  C   C11       1.0  0.07009185079220485  0.41716221324487907  0.32285790999617714  1.0000
  C   C12       1.0  0.9299081485846683  0.58283778609895  0.6771420896915452  1.0000
  C   C13       1.0  0.16715644619670125  0.4191159225636535  0.4197158692321179  1.0000
  C   C14       1.0  0.8328435534240808  0.5808840775017959  0.5802841306800289  1.0000
  C   C15       1.0  0.24213610536640776  0.5079289827872532  0.4951336148004551  1.0000
  C   C16       1.0  0.7578638956340532  0.49207101728005753  0.5048663852640777  1.0000
  C   C17       1.0  0.198923808117391  0.5964058021246952  0.47562036329470425  1.0000
  C   C18       1.0  0.8010761928830701  0.4035941979426154  0.5243796367698285  1.0000
  C   C19       1.0  0.08270497641838531  0.5912622097227812  0.38059605609724295  1.0000
  C   C20       1.0  0.9172950232023969  0.4087377903426682  0.6194039438149039  1.0000
  C   C21       1.0  0.17543696533812578  0.9090575513617027  0.6647619498238089  1.0000
  C   C22       1.0  0.8245630342826563  0.09094244870374671  0.33523805008833796  1.0000
  C   C23       1.0  0.2793141863846979  0.8694260229279283  0.5991080678452279  1.0000
  C   C24       1.0  0.7206858132360842  0.13057397713752125  0.40089193206691903  1.0000
  C   C25       1.0  0.4511855600403173  0.9220937592019357  0.5997475566044437  1.0000
  C   C26       1.0  0.5488144393365558  0.07790624014189329  0.4002524430832786  1.0000
  C   C27       1.0  0.5075131729682537  0.015673430096768574  0.6619533914755794  1.0000
  C   C28       1.0  0.4924868264086193  0.9843265692470603  0.3380466082121428  1.0000
  C   C29       1.0  0.46569338572205016  0.15774283672654954  0.7892956156545256  1.0000
  C   C30       1.0  0.5343066152784108  0.8422571633407612  0.21070438441000716  1.0000
  C   C31       1.0  0.3834629513196807  0.19280874789844707  0.8658851864825551  1.0000
  C   C32       1.0  0.6165370483011013  0.8071912521670024  0.13411481342959172  1.0000
  C   C33       1.0  0.23364372038518555  0.13449704000994003  0.8814560537248667  1.0000
  C   C34       1.0  0.7663562789916876  0.8655029593338889  0.1185439459628556  1.0000
  C   C35       1.0  0.14780349076462454  0.04296560442167973  0.8116619833053796  1.0000
  C   C36       1.0  0.8521965102358365  0.957034395645631  0.18833801675915304  1.0000
  C   C37       1.0  0.23710194089828612  0.00311102704273144  0.7337295080560415  1.0000
  C   C38       1.0  0.7628980587224958  0.996888973022718  0.2662704918561054  1.0000
  C   C39       1.0  0.40354928192493045  0.0588069261140589  0.727701346955802  1.0000
  C   C40       1.0  0.5964507176958517  0.9411930739513906  0.2722986529563448  1.0000
  C   C41       1.0  0.01797054214629639  0.8538335629867864  0.41370315774545885  1.0000
  C   C42       1.0  0.9820294574744857  0.14616643707866303  0.586296842166688  1.0000
  C   C43       1.0  0.3552631086458517  0.5009582369361681  0.5866342762508788  1.0000
  C   C44       1.0  0.6447368923546093  0.4990417631311425  0.41336572381365394  1.0000
  C   C45       1.0  0.9229356372361511  0.4958674685293838  0.19811250155582605  1.0000
  C   C46       1.0  0.07706436376431001  0.5041325315379269  0.8018874985087067  1.0000
  C   C47       1.0  0.7162546420125576  0.4485455067890447  0.17356608742951973  1.0000
  C   C48       1.0  0.28374535898764564  0.5514544932738971  0.8264339133251926  1.0000
  C   C49       1.0  0.01934901318646963  0.4497455171428368  0.117884817481202  1.0000
  C   C50       1.0  0.9806509864343125  0.5502544829226126  0.8821151824309449  1.0000
  C   C51       1.0  0.5695019327341658  0.8757293187236442  0.5350846012365382  1.0000
  C   C52       1.0  0.43049806688661624  0.1242706813418051  0.46491539867560866  1.0000
  C   C53       1.0  0.9805174681566959  0.9966591674392861  0.8256306543730417  1.0000
  C   C54       1.0  0.019482532843765055  0.003340832628024596  0.174369345691491  1.0000
  C   C55       1.0  0.6164042196312511  0.2238659842723684  0.7702737517283995  1.0000
  C   C56       1.0  0.38359577998953076  0.776134015793081  0.22972624818374737  1.0000
  C   C57       1.0  0.7976480111430723  0.251877019161368  0.8535031537379705  1.0000
  C   C58       1.0  0.2023519884777099  0.7481229809040814  0.1464968461741765  1.0000
  C   C59       1.0  0.5456346484600233  0.3125598503422742  0.7477286476929781  1.0000
  C   C60       1.0  0.45436535254043775  0.6874401497250364  0.2522713523715545  1.0000
  C   C61       1.0  0.15897210133697923  0.2811809134687715  0.2222703853633597  1.0000
  C   C62       1.0  0.8410278982838029  0.7188190865966779  0.7777296145487871  1.0000
  C   C63       1.0  0.3239031717033409  0.34889915361468327  0.9450485078146655  1.0000
  C   C64       1.0  0.6760968279171835  0.6511008464463972  0.05495149278766092  1.0000
  C   C65       1.0  0.5134062741487615  0.881551318566863  0.8614329822673509  1.0000
  C   C66       1.0  0.48659372547202057  0.11844868149858646  0.13856701764479598  1.0000
  C   C67       1.0  0.34666486282208414  0.8378600406432245  0.8874779243246598  1.0000
  C   C68       1.0  0.653335138178377  0.16213995942408616  0.11252207573987298  1.0000
  O   O1        1.0  0.3764402013820529  0.6958926399961719  0.6356808891801268  1.0000
  O   O2        1.0  0.6235597982387291  0.3041073600692776  0.3643191107320201  1.0000
  O   O3        1.0  0.3777444023982048  0.4206950160387911  0.6016710884032362  1.0000
  O   O4        1.0  0.6222555986022562  0.5793049840285195  0.3983289116612966  1.0000
  O   O5        1.0  0.18857905597951058  0.33492860057365914  0.43705255124690456  1.0000
  O   O6        1.0  0.8114209433971048  0.665071398765801  0.5629474491309974  1.0000
  O   O7        1.0  0.010845704720144197  0.3297150751814382  0.2505264596202631  1.0000
  O   O8        1.0  0.9891542946567288  0.6702849241623907  0.7494735400674591  1.0000
  O   O9        1.0  0.011824782319440593  0.8568253658804228  0.664851120918163  1.0000
  O   O10       1.0  0.9881752173013414  0.14317463418502666  0.3351488789939839  1.0000
  O   O11       1.0  0.9209852738777342  0.030484928062656257  0.9024773848393645  1.0000
  O   O12       1.0  0.07901472712272674  0.9695150720046546  0.09752261522516827  1.0000
  O   O13       1.0  0.17361433753980535  0.17064331589583626  0.9618513097519007  1.0000
  O   O14       1.0  0.8263856634606557  0.8293566841714745  0.038148690312632016  1.0000
  O   O15       1.0  0.45427833013104746  0.2834554813689881  0.9312980217541467  1.0000
  O   O16       1.0  0.5457216694897347  0.7165445186964614  0.06870197815800023  1.0000
  O   O17       1.0  0.5569533432536081  0.8491229433991212  0.782309535421713  1.0000
  O   O18       1.0  0.4430466563671739  0.15087705666632825  0.2176904644904338  1.0000
  O   O19       1.0  0.6161781703441657  0.9583100426330314  0.9320298473122713  1.0000
  O   O20       1.0  0.38382182927661634  0.04168995743241806  0.06797015259987545  1.0000
