data_image0
_chemical_formula_structural       H16C32N6F18
_chemical_formula_sum              "H16 C32 N6 F18"
_cell_length_a       8.2270880592003
_cell_length_b       8.81765244176829
_cell_length_c       12.163306717541873
_cell_angle_alpha    68.34322496851905
_cell_angle_beta     73.8389145616277
_cell_angle_gamma    76.54309280253631

_space_group_name_H-M_alt    "P 1"
_space_group_IT_number       1

loop_
  _space_group_symop_operation_xyz
  'x, y, z'

loop_
  _atom_site_type_symbol
  _atom_site_label
  _atom_site_symmetry_multiplicity
  _atom_site_fract_x
  _atom_site_fract_y
  _atom_site_fract_z
  _atom_site_occupancy
  H   H1        1.0  0.296052981205152  0.3603034344651943  0.6587571605970923  1.0000
  H   H2        1.0  0.7039470195259333  0.6396965657464763  0.3412428386582572  1.0000
  H   H3        1.0  0.5215601789684929  0.5922228491243783  0.25949856043547176  1.0000
  H   H4        1.0  0.4784398204955109  0.40777715109811863  0.7405014390589472  1.0000
  H   H5        1.0  0.41918622033013614  0.5238787920381435  0.41712251690445634  1.0000
  H   H6        1.0  0.5808137791400864  0.476121208177628  0.5828774834127168  1.0000
  H   H7        1.0  0.48959212887775355  0.08223057249630937  0.7648578911464562  1.0000
  H   H8        1.0  0.5104078705862504  0.9177694277261874  0.2351421083479627  1.0000
  H   H9        1.0  0.38451263025156757  0.8380637813838543  0.9322545585428618  1.0000
  H   H10       1.0  0.6154873693937791  0.16193621759861304  0.06774544206684117  1.0000
  H   H11       1.0  0.15356327740383388  0.8845355432632748  0.10753374785806494  1.0000
  H   H12       1.0  0.84643672206017  0.11546445695922204  0.8924662516363541  1.0000
  H   H13       1.0  0.04289583049065212  0.17577163519798544  0.10640115581607962  1.0000
  H   H14       1.0  0.9571041689795704  0.8242283650177862  0.8935988445010934  1.0000
  H   H15       1.0  0.16610140569193987  0.40626428349325966  0.9323722053039949  1.0000
  H   H16       1.0  0.8338985950391453  0.5937357167184109  0.06762779395135474  1.0000
  C   C1        1.0  0.08950449941379521  0.22275930788632808  0.6178218073232241  1.0000
  C   C2        1.0  0.9104955013235088  0.7772406923186171  0.3821781927548796  1.0000
  C   C3        1.0  0.21250848293273158  0.3437277053107117  0.531166439027271  1.0000
  C   C4        1.0  0.787491516537491  0.6562722949050598  0.4688335612899021  1.0000
  C   C5        1.0  0.19970092759109198  0.3718446047302935  0.4083061324631537  1.0000
  C   C6        1.0  0.8002990720542549  0.6281553942521738  0.5916938681465492  1.0000
  C   C7        1.0  0.9570898693438034  0.3115352379917635  0.33372810368977573  1.0000
  C   C8        1.0  0.04291013012641925  0.688464762224008  0.6662718966273974  1.0000
  C   C9        1.0  0.8093404461077738  0.23720449270664637  0.37031519259319806  1.0000
  C   C10       1.0  0.19065955336244883  0.7627955075091251  0.6296848077239751  1.0000
  C   C11       1.0  0.7504427940102009  0.14717922205709305  0.4910433108298525  1.0000
  C   C12       1.0  0.2495572067271031  0.8528207781478523  0.5089566892482511  1.0000
  C   C13       1.0  0.8417866940681658  0.13448873285411547  0.5758085617926345  1.0000
  C   C14       1.0  0.15821330540205678  0.8655112673616561  0.42419143852453856  1.0000
  C   C15       1.0  0.9865745959336626  0.2092408006260923  0.5395274738500315  1.0000
  C   C16       1.0  0.013425403536560118  0.7907591995896791  0.4604725264671416  1.0000
  C   C17       1.0  0.05221214132022137  0.29797526337538355  0.4166285629232225  1.0000
  C   C18       1.0  0.9477878594170827  0.7020247368295617  0.5833714371548813  1.0000
  C   C19       1.0  0.32045805282660217  0.45452326765447354  0.3118011998095248  1.0000
  C   C20       1.0  0.6795419466436203  0.5454767325612979  0.6881988005076483  1.0000
  C   C21       1.0  0.3518906875991539  0.45409473712400106  0.18225282888416594  1.0000
  C   C22       1.0  0.64810931313815  0.5459052630809442  0.8177471711939379  1.0000
  C   C23       1.0  0.39135803912766526  0.0979893594237832  0.842655754523249  1.0000
  C   C24       1.0  0.6086419603425572  0.9020106407919883  0.15734424579392414  1.0000
  C   C25       1.0  0.3316873198946852  0.9615724088579071  0.9361909209039223  1.0000
  C   C26       1.0  0.6683126808363999  0.03842759135376353  0.06380907835142717  1.0000
  C   C27       1.0  0.20418285632757002  0.9879241702475231  0.03299006923543339  1.0000
  C   C28       1.0  0.7958171444097338  0.012075829957422212  0.9670099308426704  1.0000
  C   C29       1.0  0.1422812164746531  0.14946633243836646  0.03263920479077031  1.0000
  C   C30       1.0  0.8577187842564321  0.8505336677733041  0.9673607944645793  1.0000
  C   C31       1.0  0.210381669299845  0.27843228388822405  0.9357148603379942  1.0000
  C   C32       1.0  0.7896183301703776  0.7215677163275475  0.06428513997917883  1.0000
  N   N1        1.0  0.30987853569743967  0.4043851769787367  0.5658960904365015  1.0000
  N   N2        1.0  0.6901214650336455  0.595614823232934  0.43410390881884797  1.0000
  N   N3        1.0  0.4269788072130221  0.5329822482272385  0.3285110160233163  1.0000
  N   N4        1.0  0.5730211935242818  0.46701775197770673  0.6714889840547874  1.0000
  N   N5        1.0  0.3327766949448355  0.2542609635701662  0.8414601081280466  1.0000
  N   N6        1.0  0.6672233047005112  0.7457390354123011  0.15853989248165637  1.0000
  F   F1        1.0  0.18063973902553207  0.07281436109679344  0.6739615729606544  1.0000
  F   F2        1.0  0.8193602604446906  0.9271856391189781  0.32603842735651867  1.0000
  F   F3        1.0  0.9914681866172446  0.27815013858683535  0.7122823930320964  1.0000
  F   F4        1.0  0.008531814113840616  0.7218498616248352  0.2877176062232533  1.0000
  F   F5        1.0  0.9961166380539348  0.40325336183425975  0.21541160921235372  1.0000
  F   F6        1.0  0.0038833614100691424  0.5967466383882372  0.7845883902820652  1.0000
  F   F7        1.0  0.7216744047456941  0.2555894408797455  0.2868418094655344  1.0000
  F   F8        1.0  0.27832559599160983  0.7444105593251997  0.7131581906125694  1.0000
  F   F9        1.0  0.6087978165971217  0.07545076698963601  0.5247367634467386  1.0000
  F   F10       1.0  0.39120218287310105  0.9245492332261354  0.4752632368704346  1.0000
  F   F11       1.0  0.7862236849956549  0.04783595355693036  0.6935211008346609  1.0000
  F   F12       1.0  0.2137763144683491  0.9521640466655665  0.306478898659758  1.0000
  F   F13       1.0  0.5170771274177421  0.4742972377192427  0.12389402827572708  1.0000
  F   F14       1.0  0.48292287204626183  0.5257027625032541  0.8761059712186919  1.0000
  F   F15       1.0  0.25131840661830795  0.5787014678719703  0.11441337914664676  1.0000
  F   F16       1.0  0.748681592845696  0.4212985323505265  0.8855866203477721  1.0000
  F   F17       1.0  0.3270720312918907  0.3086064601684544  0.17946817794084718  1.0000
  F   F18       1.0  0.6729279694454132  0.6913935400364909  0.8205318221372566  1.0000
