data_image0
_chemical_formula_structural       H32C38N2O6I2
_chemical_formula_sum              "H32 C38 N2 O6 I2"
_cell_length_a       6.360190532144505
_cell_length_b       8.266508893562648
_cell_length_c       15.88133156401312
_cell_angle_alpha    83.71321773470703
_cell_angle_beta     85.84883114109476
_cell_angle_gamma    82.83234298861332

_space_group_name_H-M_alt    "P 1"
_space_group_IT_number       1

loop_
  _space_group_symop_operation_xyz
  'x, y, z'

loop_
  _atom_site_type_symbol
  _atom_site_label
  _atom_site_symmetry_multiplicity
  _atom_site_fract_x
  _atom_site_fract_y
  _atom_site_fract_z
  _atom_site_occupancy
  H   H1        1.0  0.30555397337228085  0.8697099339691216  0.33403726513720133  1.0000
  H   H2        1.0  0.694446027615947  0.13029006582450425  0.6659627352302233  1.0000
  H   H3        1.0  0.5518941302410197  0.9996709241890817  0.425907227620519  1.0000
  H   H4        1.0  0.4481058692537978  0.0003290757414522411  0.5740927721175042  1.0000
  H   H5        1.0  0.05952232396870208  0.08805378122127239  0.2566989883177101  1.0000
  H   H6        1.0  0.9404776754456149  0.9119462185770771  0.7433010120548852  1.0000
  H   H7        1.0  0.7762932429045023  0.7800463229609855  0.5154150236705  1.0000
  H   H8        1.0  0.22370675659031516  0.21995367696954837  0.48458497606752327  1.0000
  H   H9        1.0  0.8807391900573803  0.3596397046260618  0.19174722687656645  1.0000
  H   H10       1.0  0.11926080935693661  0.6403602951722874  0.8082527734960288  1.0000
  H   H11       1.0  0.5219324431227911  0.41329837346892434  0.09727459777073985  1.0000
  H   H12       1.0  0.4780675562915258  0.5867016263294249  0.9027254026018554  1.0000
  H   H13       1.0  0.6513407023603975  0.5267395459653981  0.2822319705988588  1.0000
  H   H14       1.0  0.3486592971344199  0.47326045396513566  0.7177680291391645  1.0000
  H   H15       1.0  0.10351714129158222  0.7287173834302334  0.14536035839662287  1.0000
  H   H16       1.0  0.8964828596966457  0.27128261636339235  0.8546396419708018  1.0000
  H   H17       1.0  0.4591151568496864  0.29298481358361744  0.9660567465869004  1.0000
  H   H18       1.0  0.5408848442190419  0.7070151863421926  0.033943253145952215  1.0000
  H   H19       1.0  0.8067945466502802  0.7821239173961501  0.24834260075629414  1.0000
  H   H20       1.0  0.19320545265370187  0.21787608375278708  0.7516573989857434  1.0000
  H   H21       1.0  0.11011060852514262  0.20173923577296884  0.9480964324859498  1.0000
  H   H22       1.0  0.8898893908891745  0.7982607640253805  0.05190356788664545  1.0000
  H   H23       1.0  0.2595560927469201  0.9926541660755337  0.11147373889405168  1.0000
  H   H24       1.0  0.7404439067478974  0.007345833854999824  0.8885262608439717  1.0000
  H   H25       1.0  0.609813933701646  0.022057163447854387  0.1634998893241104  1.0000
  H   H26       1.0  0.3901860657931716  0.9779428364826794  0.8365001104139129  1.0000
  H   H27       1.0  0.8175010621335767  0.2382929840894306  0.06061654156413996  1.0000
  H   H28       1.0  0.18249893736124082  0.7617070158411032  0.9393834581738834  1.0000
  H   H29       1.0  0.08969006032380661  0.41971744176277404  0.3408662266156545  1.0000
  H   H30       1.0  0.9103099391710108  0.5802825581677598  0.6591337731223686  1.0000
  H   H31       1.0  0.6928522071097267  0.14674622537261467  0.30262099019561406  1.0000
  H   H32       1.0  0.30714779230459016  0.8532537744257346  0.6973790101769812  1.0000
  C   C1        1.0  0.05838311643776517  0.8097270589238169  0.43084855362363006  1.0000
  C   C2        1.0  0.9416168830570523  0.19027294100671696  0.5691514461143932  1.0000
  C   C3        1.0  0.14123544523366238  0.8949599605231534  0.35773930526413966  1.0000
  C   C4        1.0  0.8587645557545656  0.10504003927047223  0.642260695103285  1.0000
  C   C5        1.0  0.7199843195748261  0.9640532548262076  0.41026519154331054  1.0000
  C   C6        1.0  0.2800156814939023  0.03594674509960268  0.5897348081895419  1.0000
  C   C7        1.0  0.006764453400504466  0.01553886402365417  0.3140457325192731  1.0000
  C   C8        1.0  0.9932355460943132  0.9844611359068794  0.6859542672187503  1.0000
  C   C9        1.0  0.8442954318155025  0.8429717711543878  0.45788093322476087  1.0000
  C   C10       1.0  0.1557045675988145  0.15702822864396157  0.5421190671478343  1.0000
  C   C11       1.0  0.36343789523231634  0.6108308820606128  0.2173502020642385  1.0000
  C   C12       1.0  0.6365621042625014  0.3891691178699209  0.7826497976737848  1.0000
  C   C13       1.0  0.25407443921362927  0.45510385395767883  0.23659656151364122  1.0000
  C   C14       1.0  0.7459255602006878  0.5448961458406704  0.763403438858954  1.0000
  C   C15       1.0  0.20717574131951408  0.39003151234951366  0.15412133024727173  1.0000
  C   C16       1.0  0.7928242581753036  0.6099684875810202  0.8458786694907515  1.0000
  C   C17       1.0  0.39453377642814885  0.31621635431967654  0.2881131336148932  1.0000
  C   C18       1.0  0.605466222986168  0.6837836454786728  0.7118868667577021  1.0000
  C   C19       1.0  0.008446885000382638  0.34245527306337  0.14296678205611965  1.0000
  C   C20       1.0  0.9915531160683458  0.6575447268624403  0.8570332176767329  1.0000
  C   C21       1.0  0.3682438050893795  0.37348008338741195  0.08939237077533366  1.0000
  C   C22       1.0  0.6317561943249373  0.6265199164109372  0.9106076295972616  1.0000
  C   C23       1.0  0.560834695253692  0.6282393994907691  0.2463338881071897  1.0000
  C   C24       1.0  0.4391653058150364  0.371760600435041  0.7536661116256629  1.0000
  C   C25       1.0  0.2561734710617714  0.7435713726677426  0.16876224594693692  1.0000
  C   C26       1.0  0.743826528433046  0.2564286272627912  0.8312377537910863  1.0000
  C   C27       1.0  0.3327842201259758  0.30639075627571566  0.01574293294072525  1.0000
  C   C28       1.0  0.6672157792883411  0.6936092435226336  0.98425706743187  1.0000
  C   C29       1.0  0.6498239611458071  0.7751393722709385  0.2266896579987882  1.0000
  C   C30       1.0  0.3501760383490105  0.22486062765959533  0.7733103417392351  1.0000
  C   C31       1.0  0.13540470503519517  0.25570915782103726  0.005528867454713753  1.0000
  C   C32       1.0  0.8645952943791219  0.744290841977312  0.9944711329178816  1.0000
  C   C33       1.0  0.3435284966613204  0.8907321665791288  0.14979326320099834  1.0000
  C   C34       1.0  0.656471502833497  0.10926783335140511  0.8502067365370249  1.0000
  C   C35       1.0  0.5418303335844173  0.9070131925389554  0.17869283131677127  1.0000
  C   C36       1.0  0.45816966740381043  0.09298680725467039  0.8213071690506534  1.0000
  C   C37       1.0  0.9729857644576654  0.2752455807476816  0.06874843566420799  1.0000
  C   C38       1.0  0.02701423503715217  0.7247544191828522  0.9312515640738153  1.0000
  N   N1        1.0  0.8023132574286354  0.04759481704552761  0.34078286553525866  1.0000
  N   N2        1.0  0.19768674198568156  0.9524051827528217  0.6592171348373366  1.0000
  O   O1        1.0  0.5728855467917329  0.26335263253134306  0.25280916778872226  1.0000
  O   O2        1.0  0.4271144526225841  0.7366473672670063  0.747190832583873  1.0000
  O   O3        1.0  0.06345087145149989  0.4923662334932503  0.28796239411623453  1.0000
  O   O4        1.0  0.9365491296172285  0.50763376643256  0.7120376056166181  1.0000
  O   O5        1.0  0.3205697478171533  0.26488888463957977  0.3604375686663347  1.0000
  O   O6        1.0  0.6794302515971637  0.7351111151587695  0.6395624317062607  1.0000
  I   I1        1.0  0.25832767936048107  0.6344402088802323  0.5020863339419569  1.0000
  I   I2        1.0  0.7416723200538359  0.3655597909181169  0.4979136664306384  1.0000
