data_image0
_chemical_formula_structural       H44C54O12
_chemical_formula_sum              "H44 C54 O12"
_cell_length_a       10.047867344564217
_cell_length_b       10.444605997984501
_cell_length_c       10.607964210671579
_cell_angle_alpha    82.82267949634549
_cell_angle_beta     76.50519557379215
_cell_angle_gamma    84.03811532692748

_space_group_name_H-M_alt    "P 1"
_space_group_IT_number       1

loop_
  _space_group_symop_operation_xyz
  'x, y, z'

loop_
  _atom_site_type_symbol
  _atom_site_label
  _atom_site_symmetry_multiplicity
  _atom_site_fract_x
  _atom_site_fract_y
  _atom_site_fract_z
  _atom_site_occupancy
  H   H1        1.0  0.392806882221089  0.9156593839540579  0.3065572001601975  1.0000
  H   H2        1.0  0.6071931182791548  0.084340615748615  0.693442799592655  1.0000
  H   H3        1.0  0.597784035279644  0.9785942817115387  0.13642693388910163  1.0000
  H   H4        1.0  0.4022159651484571  0.021405718952877347  0.8635730667100123  1.0000
  H   H5        1.0  0.7099000165056191  0.13673265186616984  0.9657426400209635  1.0000
  H   H6        1.0  0.2900999828938142  0.8632673488065727  0.034257359865999815  1.0000
  H   H7        1.0  0.6999763956662765  0.34305179699213645  0.8235041374256878  1.0000
  H   H8        1.0  0.3000236038103063  0.656948202712728  0.17649586255732166  1.0000
  H   H9        1.0  0.48115585417224915  0.4812481956544828  0.8415704246218251  1.0000
  H   H10       1.0  0.5188441462558521  0.5187518050099331  0.15842957597728904  1.0000
  H   H11       1.0  0.2729530426353087  0.4165873168319238  0.0036977352431805627  1.0000
  H   H12       1.0  0.7270469578649352  0.5834126828707492  0.9963022645096719  1.0000
  H   H13       1.0  0.07445603624265273  0.9109415234336163  0.4942905613112743  1.0000
  H   H14       1.0  0.9255439631567808  0.08905847723912613  0.5057094385756891  1.0000
  H   H15       1.0  0.8352908335254896  0.3572915912370152  0.0737437887935719  1.0000
  H   H16       1.0  0.16470916595109328  0.6427084084678492  0.9262562111894378  1.0000
  H   H17       1.0  0.8196919903357245  0.553271620092207  0.1908549467268823  1.0000
  H   H18       1.0  0.18030801008737005  0.4467283805783441  0.8091450529299238  1.0000
  H   H19       1.0  0.9120372208533803  0.676918995177021  0.32852453966682676  1.0000
  H   H20       1.0  0.08796277964686355  0.3230810045256521  0.6714754600860257  1.0000
  H   H21       1.0  0.08916413364552607  0.7013394095481921  0.4506074772857317  1.0000
  H   H22       1.0  0.9108358667775682  0.298660591122359  0.5493925223710743  1.0000
  H   H23       1.0  0.28762739360899336  0.5363148427980095  0.44766404770218177  1.0000
  H   H24       1.0  0.7123726068912505  0.46368515690466344  0.5523359520506708  1.0000
  H   H25       1.0  0.305131669065886  0.34475060380186534  0.32832267427341866  1.0000
  H   H26       1.0  0.6948683304157035  0.655249395896864  0.671677326651899  1.0000
  H   H27       1.0  0.934250794259122  0.07831167568574043  0.9515662354158969  1.0000
  H   H28       1.0  0.06574920521746068  0.921688324019124  0.04843376456711267  1.0000
  H   H29       1.0  0.2431211281024322  0.9744484611346106  0.609377806894379  1.0000
  H   H30       1.0  0.7568788723206622  0.025551539535940426  0.3906221927624271  1.0000
  H   H31       1.0  0.11121126907791194  0.08572971571990658  0.6851365708684222  1.0000
  H   H32       1.0  0.8887887314223318  0.9142702839827663  0.3148634288844304  1.0000
  H   H33       1.0  0.21709929728841737  0.9930674544067862  0.7793810036166604  1.0000
  H   H34       1.0  0.782900703134677  0.006932546263764636  0.22061899604014576  1.0000
  H   H35       1.0  0.4126758518972585  0.11184663784135367  0.45595486319090905  1.0000
  H   H36       1.0  0.587324148607992  0.8881533618551842  0.5440451375042512  1.0000
  H   H37       1.0  0.38143850148040265  0.289166830110452  0.7063615600232749  1.0000
  H   H38       1.0  0.6185614990198413  0.710833169592221  0.2936384397295775  1.0000
  H   H39       1.0  0.5742733169507177  0.2538201666403625  0.3103094935182441  1.0000
  H   H40       1.0  0.4257266835495262  0.7461798330623106  0.6896905062346085  1.0000
  H   H41       1.0  0.6940492142427166  0.28715464081312003  0.4002896466285419  1.0000
  H   H42       1.0  0.30595078523386615  0.7128453588917444  0.5997103533544678  1.0000
  H   H43       1.0  0.5759986186682376  0.4134776443726043  0.35811022572261075  1.0000
  H   H44       1.0  0.4240013808083452  0.5865223553322602  0.6418897742603988  1.0000
  C   C1        1.0  0.25523778860877494  0.201678167310567  0.17909264337500894  1.0000
  C   C2        1.0  0.744762211891469  0.7983218323921061  0.8209073563778435  1.0000
  C   C3        1.0  0.26643674548932367  0.0878284259762381  0.2611360620356206  1.0000
  C   C4        1.0  0.7335632539872592  0.9121715737286263  0.738863937947389  1.0000
  C   C5        1.0  0.3902355756880645  0.006646322946592314  0.24467424981297548  1.0000
  C   C6        1.0  0.6097644237885184  0.9933536767582721  0.7553257501700342  1.0000
  C   C7        1.0  0.5035471806740012  0.042005408269351945  0.15136480120303417  1.0000
  C   C8        1.0  0.4964528187254322  0.9579945924033906  0.8486351986839291  1.0000
  C   C9        1.0  0.49846009107714034  0.15976620952385429  0.06976543624998607  1.0000
  C   C10       1.0  0.5015399083994426  0.8402337901810103  0.9302345637330236  1.0000
  C   C11       1.0  0.6153611224144705  0.19926862106323412  0.9751103385167567  1.0000
  C   C12       1.0  0.3846388770621122  0.8007313786416305  0.02488966146625298  1.0000
  C   C13       1.0  0.6093233058121824  0.31331600297417156  0.8954434420519827  1.0000
  C   C14       1.0  0.3906766946880613  0.6866839967285013  0.10455655770086975  1.0000
  C   C15       1.0  0.4846139486668703  0.39165399417841734  0.9056905337138743  1.0000
  C   C16       1.0  0.5153860508097124  0.6083460055264471  0.09430946626913528  1.0000
  C   C17       1.0  0.36864622220958504  0.355746319588079  0.9959441871361046  1.0000
  C   C18       1.0  0.6313537782906589  0.644253680114594  0.0040558126167477785  1.0000
  C   C19       1.0  0.37212790623014713  0.23984034705675897  0.08157123307880736  1.0000
  C   C20       1.0  0.6278720931742928  0.7601596536098486  0.9184287677504639  1.0000
  C   C21       1.0  0.14816560666833548  0.048553657688345055  0.3645293963367651  1.0000
  C   C22       1.0  0.8518343938369148  0.951446342008193  0.6354706043583952  1.0000
  C   C23       1.0  0.12757402240741372  0.2898046256552101  0.18949785607414524  1.0000
  C   C24       1.0  0.8724259770691691  0.7101953740496544  0.8105021439088643  1.0000
  C   C25       1.0  0.024200350948298314  0.27503145737857865  0.1255164637926624  1.0000
  C   C26       1.0  0.9757996495519455  0.7249685423240944  0.87448353596019  1.0000
  C   C27       1.0  0.9129811781085503  0.37146609316423507  0.1260935337179583  1.0000
  C   C28       1.0  0.08701882136803267  0.6285339065406295  0.8739064662650514  1.0000
  C   C29       1.0  0.9042988919414239  0.47899171564375775  0.1908047121011835  1.0000
  C   C30       1.0  0.09570110753515908  0.5210082840611068  0.8091952878818263  1.0000
  C   C31       1.0  0.006072399980738183  0.4962300118664538  0.2589516801269403  1.0000
  C   C32       1.0  0.9939275994237017  0.5037699888001538  0.741048320702331  1.0000
  C   C33       1.0  0.9987449508192776  0.6051052516610735  0.32856341033990166  1.0000
  C   C34       1.0  0.001255048662311774  0.39489474803765595  0.6714365905854158  1.0000
  C   C35       1.0  0.09759625833390331  0.6185240223271744  0.39579820853587766  1.0000
  C   C36       1.0  0.9024037411476861  0.381475977371555  0.6042017923894399  1.0000
  C   C37       1.0  0.20907303912327077  0.5240521564379493  0.39562936513847274  1.0000
  C   C38       1.0  0.7909269612998236  0.4759478442326016  0.6043706345183332  1.0000
  C   C39       1.0  0.21981503796319873  0.4179119520347499  0.3277224847536576  1.0000
  C   C40       1.0  0.7801849614362347  0.5820880486379927  0.6722775151333056  1.0000
  C   C41       1.0  0.11933516681655856  0.40068512451521565  0.2580030843281317  1.0000
  C   C42       1.0  0.8806648326600242  0.5993148751896489  0.7419969156548779  1.0000
  C   C43       1.0  0.022962776092798176  0.15720234662065707  0.06185029829034578  1.0000
  C   C44       1.0  0.9770372244074458  0.8427976530820157  0.9381497014625066  1.0000
  C   C45       1.0  0.21679348710920154  0.04363441049451627  0.6823328593392761  1.0000
  C   C46       1.0  0.7832065123673813  0.9563655892103482  0.3176671406437336  1.0000
  C   C47       1.0  0.31300801021244845  0.1482298896782332  0.6522819336558291  1.0000
  C   C48       1.0  0.6869919891869849  0.8517701109945094  0.3477180662311342  1.0000
  C   C49       1.0  0.4053650886838164  0.17231816332049196  0.5339281266640715  1.0000
  C   C50       1.0  0.5946349118214341  0.8276818363760461  0.46607187403108885  1.0000
  C   C51       1.0  0.4895215325032479  0.2780624218136383  0.5145939780075568  1.0000
  C   C52       1.0  0.5104784669733348  0.7219375778912261  0.48540602197545296  1.0000
  C   C53       1.0  0.5883109195683387  0.3089615946359443  0.38709483695801344  1.0000
  C   C54       1.0  0.41168908085475586  0.6910384060346068  0.6129051626987927  1.0000
  O   O1        1.0  0.04414163746200525  0.12394830903932656  0.3989532548911377  1.0000
  O   O2        1.0  0.9558583629610893  0.8760516916312246  0.6010467447656683  1.0000
  O   O3        1.0  0.16100025443289986  0.9284794402941605  0.41975223685860835  1.0000
  O   O4        1.0  0.8389997460673441  0.07152055940851236  0.5802477628942442  1.0000
  O   O5        1.0  0.08950642683347838  0.052987839919021756  0.08754471208667149  1.0000
  O   O6        1.0  0.9104935736667653  0.9470121597836513  0.9124552876661809  1.0000
  O   O7        1.0  0.9409320142110144  0.1684457123687156  0.9790149376160314  1.0000
  O   O8        1.0  0.05906798519342544  0.8315542882978918  0.02098506321323982  1.0000
  O   O9        1.0  0.3051492705247557  0.22143779992554657  0.7473917763936079  1.0000
  O   O10       1.0  0.6948507289518271  0.778562199779318  0.25260822358940177  1.0000
  O   O11       1.0  0.48278535050567994  0.3489380944281003  0.606258402386798  1.0000
  O   O12       1.0  0.5172146489709029  0.6510619052767642  0.3937415975962117  1.0000
