data_image0
_chemical_formula_structural       H52C92N16O24Br12
_chemical_formula_sum              "H52 C92 N16 O24 Br12"
_cell_length_a       15.3148271261
_cell_length_b       7.068202584350691
_cell_length_c       21.172588182210596
_cell_angle_alpha    90.0
_cell_angle_beta     101.79809020756302
_cell_angle_gamma    90.0

_space_group_name_H-M_alt    "P 1"
_space_group_IT_number       1

loop_
  _space_group_symop_operation_xyz
  'x, y, z'

loop_
  _atom_site_type_symbol
  _atom_site_label
  _atom_site_symmetry_multiplicity
  _atom_site_fract_x
  _atom_site_fract_y
  _atom_site_fract_z
  _atom_site_occupancy
  H   H1        1.0  0.4486193858987298  0.8294233732038047  0.9189241160251903  1.0000
  H   H2        1.0  0.05138061418646328  0.32942337209678285  0.5810758843556973  1.0000
  H   H3        1.0  0.5513806142397444  0.1705766275954521  0.08107588428441431  1.0000
  H   H4        1.0  0.948619385952011  0.6705766272876871  0.4189241159539073  1.0000
  H   H5        1.0  0.4448955957290888  0.31477599905328507  0.3294207295959951  1.0000
  H   H6        1.0  0.0551044042712802  0.81477599874552  0.1705792703175567  1.0000
  H   H7        1.0  0.5551044042716493  0.6852240003311849  0.6705792702311085  1.0000
  H   H8        1.0  0.9448955958671941  0.18522400063894992  0.8294207299920479  1.0000
  H   H9        1.0  0.48764620414922677  0.6246557787938098  0.23532260774997912  1.0000
  H   H10       1.0  0.012353795851142236  0.12465577910157483  0.2646773921635727  1.0000
  H   H11       1.0  0.5123537958515113  0.37534422059066014  0.7646773920771245  1.0000
  H   H12       1.0  0.987646204149596  0.8753442216976819  0.735322607663531  1.0000
  H   H13       1.0  0.7775897549136452  0.0785834012779679  0.2757780386772738  1.0000
  H   H14       1.0  0.7224102444876951  0.5785834009702029  0.22422196107954304  1.0000
  H   H15       1.0  0.22241024508709284  0.9214165995212888  0.7242219611498298  1.0000
  H   H16       1.0  0.2775897555130431  0.42141659982905394  0.7757780387475606  1.0000
  H   H17       1.0  0.6687674590945373  0.9548324258479048  0.1754496554897798  1.0000
  H   H18       1.0  0.8312325410972181  0.45483242615566977  0.3245503447485418  1.0000
  H   H19       1.0  0.3312325410439369  0.045167574951352034  0.8245503448198248  1.0000
  H   H20       1.0  0.16876745904125617  0.545167574643587  0.6754496555610628  1.0000
  H   H21       1.0  0.7000758483672882  0.4797873503948996  0.3918999942628473  1.0000
  H   H22       1.0  0.7999241518244671  0.9797873500871346  0.10810000597547424  1.0000
  H   H23       1.0  0.2999241517711861  0.5202126504043572  0.6081000060467573  1.0000
  H   H24       1.0  0.2000758483140071  0.020212649297335364  0.8918999943341306  1.0000
  H   H25       1.0  0.6836646325925002  0.7950370427188632  0.43949689280110116  1.0000
  H   H26       1.0  0.8163353675992552  0.29503704302662825  0.06050310743722044  1.0000
  H   H27       1.0  0.316335367545974  0.20496295808039355  0.5605031075085035  1.0000
  H   H28       1.0  0.18366463253921908  0.7049629577726286  0.9394968928723841  1.0000
  H   H29       1.0  0.5572980632793129  0.010379916127819895  0.38661629671591685  1.0000
  H   H30       1.0  0.9427019369124425  0.5103799158200549  0.11338370352240472  1.0000
  H   H31       1.0  0.44270193685916137  0.98962008325665  0.6133837035936879  1.0000
  H   H32       1.0  0.05729806308829564  0.48962008356441505  0.886616296304699  1.0000
  H   H33       1.0  0.46078751249911043  0.8981110267063959  0.28145523328739536  1.0000
  H   H34       1.0  0.03921248750125863  0.39811102701416096  0.2185447666261565  1.0000
  H   H35       1.0  0.5392124876393638  0.10188897267807405  0.7185447670222094  1.0000
  H   H36       1.0  0.9607875124994795  0.6018889737850959  0.7814552332009471  1.0000
  H   H37       1.0  0.4097478379885323  0.19110408111259386  0.12778954967783762  1.0000
  H   H38       1.0  0.09025216201183678  0.6911040822196156  0.3722104502357142  1.0000
  H   H39       1.0  0.5902521613595269  0.8088959182718761  0.8722104501502623  1.0000
  H   H40       1.0  0.9097478379889014  0.30889591857964116  0.6277895495913894  1.0000
  H   H41       1.0  0.24447551133575995  0.22823756262614206  0.11772581698984985  1.0000
  H   H42       1.0  0.2555244886646091  0.728237562318377  0.38227418292370197  1.0000
  H   H43       1.0  0.7555244886649782  0.7717624381731147  0.8822741828372538  1.0000
  H   H44       1.0  0.744475511336129  0.2717624384808798  0.6177258169034017  1.0000
  H   H45       1.0  0.1850731040121397  0.3097892079165907  0.21516673717652057  1.0000
  H   H46       1.0  0.3149268959882294  0.8097892076088258  0.28483326273703125  1.0000
  H   H47       1.0  0.8149268959885984  0.6902107914678792  0.784833262650583  1.0000
  H   H48       1.0  0.6850731040125086  0.1902107917756443  0.7151667370900724  1.0000
  H   H49       1.0  0.29453854945832186  0.3538886867133822  0.32125087457824236  1.0000
  H   H50       1.0  0.20546144988936818  0.8538886864056171  0.17874912533630577  1.0000
  H   H51       1.0  0.7054614500274733  0.6461113126710878  0.6787491257323586  1.0000
  H   H52       1.0  0.794538549458691  0.1461113129788528  0.8212508744917942  1.0000
  C   C1        1.0  0.5571925854641443  0.7011936741843247  0.05399778760513778  1.0000
  C   C2        1.0  0.9428074147276111  0.2011936744920897  0.4460022126331838  1.0000
  C   C3        1.0  0.44280741467432994  0.2988063252001453  0.9460022127044667  1.0000
  C   C4        1.0  0.057192585410863105  0.7988063248923802  0.5539977876764208  1.0000
  C   C5        1.0  0.4943839523464663  0.7575319886635469  0.0021937789800810384  1.0000
  C   C6        1.0  0.005616047791638795  0.25753198897131185  0.4978062214159718  1.0000
  C   C7        1.0  0.5056160477920079  0.24246801213570998  0.9978062213295237  1.0000
  C   C8        1.0  0.9943839523468354  0.7424680118279449  0.5021937788936328  1.0000
  C   C9        1.0  0.39741817110673466  0.7909925774309988  0.004524106876402471  1.0000
  C   C10       1.0  0.10258182889363446  0.29099257773876386  0.4954758930371494  1.0000
  C   C11       1.0  0.6025818288940036  0.20900742195347113  0.9954758929507012  1.0000
  C   C12       1.0  0.8974181711071036  0.7090074230604929  0.5045241067899544  1.0000
  C   C13       1.0  0.3713378552013443  0.7625703728319416  0.0637069796534051  1.0000
  C   C14       1.0  0.12866214493676087  0.2625703717249198  0.4362930207426477  1.0000
  C   C15       1.0  0.6286621449371299  0.23742962796731515  0.9362930206561996  1.0000
  C   C16       1.0  0.8713378552017134  0.7374296276595501  0.5637069795669569  1.0000
  C   C17       1.0  0.4310845197069209  0.700970586351006  0.1190457205990671  1.0000
  C   C18       1.0  0.06891548029344814  0.20097058665877104  0.3809542793144847  1.0000
  C   C19       1.0  0.5689154802938172  0.299029413033464  0.8809542792280365  1.0000
  C   C20       1.0  0.93108451970729  0.7990294127256989  0.6190457205126189  1.0000
  C   C21       1.0  0.5299260942158135  0.6621289435537487  0.1140651848552626  1.0000
  C   C22       1.0  0.9700739058382056  0.16212894386151383  0.3859348149005579  1.0000
  C   C23       1.0  0.47007390578492464  0.3378710558307212  0.8859348149718411  1.0000
  C   C24       1.0  0.029926094162532384  0.837871056937743  0.6140651849265456  1.0000
  C   C25       1.0  0.5029199006051751  0.3697259280295609  0.44679072164874284  1.0000
  C   C26       1.0  0.997080099448844  0.8697259291365826  0.05320927810707776  1.0000
  C   C27       1.0  0.49708009939556297  0.6302740713549091  0.5532092781783609  1.0000
  C   C28       1.0  0.002919900551893978  0.13027407166267407  0.9467907217200259  1.0000
  C   C29       1.0  0.4470412813034217  0.553702717670411  0.4374807795373746  1.0000
  C   C30       1.0  0.05295871869694738  0.053702717978176016  0.06251922037617728  1.0000
  C   C31       1.0  0.5529587186973164  0.44629728171405897  0.5625192202897291  1.0000
  C   C32       1.0  0.9470412813037906  0.9462972828210808  0.9374807794509264  1.0000
  C   C33       1.0  0.44836865730993636  0.6723460163014782  0.4917102333403994  1.0000
  C   C34       1.0  0.05163134269043267  0.17234601519445636  0.008289766573152418  1.0000
  C   C35       1.0  0.5516313426908017  0.3276539844977786  0.5082897664867043  1.0000
  C   C36       1.0  0.9483686574480414  0.8276539841900137  0.9917102337364522  1.0000
  C   C37       1.0  0.709437149706447  0.1306766761389946  0.26095571844306087  1.0000
  C   C38       1.0  0.7905628496948932  0.6306766758312297  0.23904428131375594  1.0000
  C   C39       1.0  0.2905628502942911  0.8693233246602622  0.7390442813840427  1.0000
  C   C40       1.0  0.20943715030584484  0.3693233249680272  0.7609557185133476  1.0000
  C   C41       1.0  0.648124352836687  0.055966882001351095  0.20844785972069918  1.0000
  C   C42       1.0  0.8518756472173322  0.5559668816935861  0.29155214003512137  1.0000
  C   C43       1.0  0.35187564716405106  0.9440331187979056  0.7915521401064045  1.0000
  C   C44       1.0  0.14812435278340597  0.4440331176908839  0.7084478597919823  1.0000
  C   C45       1.0  0.6023374900640904  0.3400517446007525  0.28042485675366546  1.0000
  C   C46       1.0  0.8976625099899288  0.8400517442929875  0.2195751430021551  1.0000
  C   C47       1.0  0.39766250993664765  0.6599482547837174  0.7195751430734382  1.0000
  C   C48       1.0  0.1023374900108094  0.15994825509148247  0.7804248568249486  1.0000
  C   C49       1.0  0.5906142896990474  0.5222319799056934  0.31174382673535467  1.0000
  C   C50       1.0  0.909385710492708  0.022231980213458388  0.18825617350296683  1.0000
  C   C51       1.0  0.4093857104394268  0.4777680194787766  0.68825617357425  1.0000
  C   C52       1.0  0.09061428964576627  0.9777680205857985  0.8117438268066378  1.0000
  C   C53       1.0  0.6479337134775198  0.5764715246025038  0.36897237002644684  1.0000
  C   C54       1.0  0.8520662867142356  0.07647152491026878  0.13102763021187472  1.0000
  C   C55       1.0  0.35206628666095446  0.4235284747819662  0.6310276302831578  1.0000
  C   C56       1.0  0.14793371328650254  0.9235284744742012  0.868972369615229  1.0000
  C   C57       1.0  0.6377697838684944  0.7532340147957264  0.3954485440874557  1.0000
  C   C58       1.0  0.862230216323261  0.2532340151034914  0.10455145615086579  1.0000
  C   C59       1.0  0.3622302162699799  0.24676598600353042  0.6045514562221489  1.0000
  C   C60       1.0  0.13776978381521324  0.7467659856957654  0.8954485441587389  1.0000
  C   C61       1.0  0.5691134424911983  0.8735048474232682  0.3659910977020235  1.0000
  C   C62       1.0  0.9308865575628209  0.37350484773103315  0.13400890205379704  1.0000
  C   C63       1.0  0.43088655750953975  0.1264951519612018  0.6340089021250802  1.0000
  C   C64       1.0  0.06911344243791727  0.6264951516534368  0.8659910977733066  1.0000
  C   C65       1.0  0.51459591147394  0.8136822114767288  0.30915304114030434  1.0000
  C   C66       1.0  0.9854040887178153  0.3136822117844938  0.19084695909801722  1.0000
  C   C67       1.0  0.48540408866453416  0.18631778790774114  0.6908469591693003  1.0000
  C   C68       1.0  0.014595911282922792  0.6863177875999762  0.8091530407290866  1.0000
  C   C69       1.0  0.5367126595440975  0.23762281286597992  0.23663152256169362  1.0000
  C   C70       1.0  0.9632873405099216  0.7376228125582149  0.263368477194127  1.0000
  C   C71       1.0  0.4632873404566405  0.7623771879332769  0.76336847726541  1.0000
  C   C72       1.0  0.036712659490816514  0.2623771882410419  0.7366315226329767  1.0000
  C   C73       1.0  0.4390782204087327  0.25855783110210384  0.2287290634321551  1.0000
  C   C74       1.0  0.0609217795916364  0.7585578307943388  0.2712709364813967  1.0000
  C   C75       1.0  0.5609217795920055  0.741442169697153  0.7712709363949486  1.0000
  C   C76       1.0  0.9390782204091018  0.24144216859013112  0.728729063345707  1.0000
  C   C77       1.0  0.3817775690846519  0.22800707687243615  0.1693018941765914  1.0000
  C   C78       1.0  0.11822243091571717  0.7280070779794581  0.33069810573696046  1.0000
  C   C79       1.0  0.6182224310538224  0.7719929225120338  0.8306981061330132  1.0000
  C   C80       1.0  0.8817775690850209  0.2719929228197988  0.6693018940901433  1.0000
  C   C81       1.0  0.2901941932968553  0.24902813819981875  0.16379880597828986  1.0000
  C   C82       1.0  0.20980580670351373  0.7490281378920537  0.33620119393526193  1.0000
  C   C83       1.0  0.7098058067038826  0.7509718611846512  0.8362011938488136  1.0000
  C   C84       1.0  0.7901941932972243  0.25097186149241624  0.6637988058918417  1.0000
  C   C85       1.0  0.25641907854975954  0.296425654895469  0.21804952752495163  1.0000
  C   C86       1.0  0.24358092145060953  0.796425654587704  0.28195047238860027  1.0000
  C   C87       1.0  0.7435809214509785  0.7035743444890009  0.7819504723021521  1.0000
  C   C88       1.0  0.7564190785501286  0.203574344796766  0.7180495274385034  1.0000
  C   C89       1.0  0.31530168967186106  0.3217472706618684  0.27633896969583194  1.0000
  C   C90       1.0  0.184698310328508  0.8217472717688903  0.2236610302177199  1.0000
  C   C91       1.0  0.6846983103288771  0.6782527287226015  0.7236610301312717  1.0000
  C   C92       1.0  0.8153016896722302  0.17825272903036649  0.7763389696093836  1.0000
  N   N1        1.0  0.686712929501213  0.2757811206933689  0.2940326287505331  1.0000
  N   N2        1.0  0.8132870705528062  0.775781120385604  0.20596737100528748  1.0000
  N   N3        1.0  0.3132870704995251  0.7242188801058879  0.7059673710765706  1.0000
  N   N4        1.0  0.18671292944793189  0.2242188804136529  0.7940326288218162  1.0000
  N   N5        1.0  0.5624561424623575  0.10463484898373783  0.19857717326175958  1.0000
  N   N6        1.0  0.9375438577293977  0.6046348486759727  0.30142282697656203  1.0000
  N   N7        1.0  0.4375438576761166  0.895365151815519  0.8014228270478451  1.0000
  N   N8        1.0  0.06245614240907644  0.39536515070849715  0.6985771733330427  1.0000
  N   N9        1.0  0.5269374670783763  0.6449836426722614  0.28306312964530034  1.0000
  N   N10       1.0  0.9730625324607  0.14498364298002633  0.21693687059401748  1.0000
  N   N11       1.0  0.47306253240741886  0.3550163581269955  0.7169368706653005  1.0000
  N   N12       1.0  0.02693746767777426  0.8550163578192305  0.7830631297155871  1.0000
  N   N13       1.0  0.4037859288277464  0.3035505850879765  0.2806265620691274  1.0000
  N   N14       1.0  0.09621407051994368  0.8035505847802115  0.21937343784542068  1.0000
  N   N15       1.0  0.5962140705203128  0.6964494142964935  0.7193734377589726  1.0000
  N   N16       1.0  0.9037859289658516  0.19644941460425847  0.7806265624651803  1.0000
  O   O1        1.0  0.5097676143073766  0.7909208831078731  0.9438941029795702  1.0000
  O   O2        1.0  0.9902323858314667  0.2909208834156382  0.5561058972435863  1.0000
  O   O3        1.0  0.4902323858310975  0.20907911627659678  0.056105897330034404  1.0000
  O   O4        1.0  0.009767614169271483  0.7090791159688318  0.4438941025835174  1.0000
  O   O5        1.0  0.35040979709368014  0.8434741773247683  0.9515571075639278  1.0000
  O   O6        1.0  0.14959020285377686  0.34347417763253324  0.548442892334459  1.0000
  O   O7        1.0  0.6495902029070579  0.1565258220597017  0.04844289226317591  1.0000
  O   O8        1.0  0.8504097972846973  0.6565258231667235  0.45155710797514564  1.0000
  O   O9        1.0  0.4117565308211336  0.6727349030045965  0.1735307992131409  1.0000
  O   O10       1.0  0.08824346917923541  0.17273490331236147  0.3264692007004109  1.0000
  O   O11       1.0  0.5882434691796045  0.3272650963798735  0.8264692006139628  1.0000
  O   O12       1.0  0.9117565308215027  0.8272650960721085  0.6735307991266927  1.0000
  O   O13       1.0  0.5804678833987665  0.5989109238850259  0.16264535935476576  1.0000
  O   O14       1.0  0.9195321166552527  0.0989109241927909  0.3373546404010548  1.0000
  O   O15       1.0  0.4195321166019716  0.4010890754994441  0.837354640472338  1.0000
  O   O16       1.0  0.08046788334548546  0.9010890751916791  0.6626453594260489  1.0000
  O   O17       1.0  0.5008101349904419  0.26891487154150506  0.3966691968233451  1.0000
  O   O18       1.0  0.9991898652013135  0.7689148726485269  0.1033308034149765  1.0000
  O   O19       1.0  0.4991898651480324  0.731085127842965  0.6033308034862597  1.0000
  O   O20       1.0  0.0008101349371606722  0.23108512815072996  0.8966691968946281  1.0000
  O   O21       1.0  0.4035260557553614  0.5854309056112214  0.38170504784572423  1.0000
  O   O22       1.0  0.09647394424500767  0.08543090591898633  0.11829495206782759  1.0000
  O   O23       1.0  0.5964739442453767  0.4145690951880355  0.6182949519813794  1.0000
  O   O24       1.0  0.9035260558934665  0.9145690948802704  0.8817050482417771  1.0000
  Br  Br1       1.0  0.6776388420103148  0.6672752151222145  0.04722814071799196  1.0000
  Br  Br2       1.0  0.8223611575287617  0.1672752140151927  0.4527718595213259  1.0000
  Br  Br3       1.0  0.3223611579904234  0.3327247856770423  0.9527718591091118  1.0000
  Br  Br4       1.0  0.1776388419570336  0.8327247853692773  0.5472281407892751  1.0000
  Br  Br5       1.0  0.25070370745576404  0.8118227896727898  0.06691841991127317  1.0000
  Br  Br6       1.0  0.24929629254460497  0.31182278998055474  0.4330815800022786  1.0000
  Br  Br7       1.0  0.7492962925449741  0.18817720971168023  0.9330815799158305  1.0000
  Br  Br8       1.0  0.7507037075938693  0.6881772094039152  0.5669184203073261  1.0000
  Br  Br9       1.0  0.37785773840258813  0.8964868047259142  0.47812683627773495  1.0000
  Br  Br10      1.0  0.12214226159778092  0.3964868036188924  0.021873163635816928  1.0000
  Br  Br11      1.0  0.6221422615981501  0.1035131960733426  0.5218731635493689  1.0000
  Br  Br12      1.0  0.8778577384029572  0.6035131957655775  0.9781268361912868  1.0000
