data_image0
_chemical_formula_structural       H26C46N8O12Br6
_chemical_formula_sum              "H26 C46 N8 O12 Br6"
_cell_length_a       9.957258805261587
_cell_length_b       10.260141873658906
_cell_length_c       11.990236196959438
_cell_angle_alpha    89.92697123222774
_cell_angle_beta     67.52071082197699
_cell_angle_gamma    83.36276461014083

_space_group_name_H-M_alt    "P 1"
_space_group_IT_number       1

loop_
  _space_group_symop_operation_xyz
  'x, y, z'

loop_
  _atom_site_type_symbol
  _atom_site_label
  _atom_site_symmetry_multiplicity
  _atom_site_fract_x
  _atom_site_fract_y
  _atom_site_fract_z
  _atom_site_occupancy
  H   H1        1.0  0.2589722599969545  0.31954303396372175  0.10791775035262514  1.0000
  H   H2        1.0  0.7410277398351672  0.6804569658997298  0.8920822496396648  1.0000
  H   H3        1.0  0.9096308379292612  0.04360370850703508  0.29880815166157354  1.0000
  H   H4        1.0  0.09036916190286047  0.9563962913564166  0.7011918483307165  1.0000
  H   H5        1.0  0.6463131957980616  0.34661479498038816  0.5018758234649511  1.0000
  H   H6        1.0  0.3536868040340601  0.6533852048830635  0.49812417652733887  1.0000
  H   H7        1.0  0.21526307579955842  0.45070943545562653  0.36772519414498084  1.0000
  H   H8        1.0  0.784736925039327  0.5492905643981696  0.6322748058443252  1.0000
  H   H9        1.0  0.18095800644372745  0.32135876287916465  0.5567841038568574  1.0000
  H   H10       1.0  0.8190419933883939  0.678641236984287  0.4432158961354326  1.0000
  H   H11       1.0  0.9734997645501228  0.32065948300221825  0.14900183367089442  1.0000
  H   H12       1.0  0.026500234864794962  0.6793405168984392  0.8509981672249364  1.0000
  H   H13       1.0  0.7772625986472278  0.3404011935239872  0.06493707949261977  1.0000
  H   H14       1.0  0.22273740118489388  0.6595988063394644  0.9350629204996702  1.0000
  H   H15       1.0  0.5156714123510846  0.3554763585294168  0.2048404726520986  1.0000
  H   H16       1.0  0.48432858748103697  0.6445236413340348  0.7951595273401914  1.0000
  H   H17       1.0  0.4585663695694997  0.3619011606129316  0.43217178066482986  1.0000
  H   H18       1.0  0.5414336302626219  0.63809883925052  0.5678282193274601  1.0000
  H   H19       1.0  0.797481411578157  0.12872132741127584  0.7049966716516213  1.0000
  H   H20       1.0  0.20251858814313436  0.8712786734337195  0.29500332834867493  1.0000
  H   H21       1.0  0.6059819732310645  0.9739900049294018  0.7654467831838494  1.0000
  H   H22       1.0  0.39401802649022666  0.02600999591559382  0.23455321681644684  1.0000
  H   H23       1.0  0.5390211989976937  0.8772346299400029  0.604766853672542  1.0000
  H   H24       1.0  0.4609788008344278  0.1227653699234488  0.3952331463197479  1.0000
  H   H25       1.0  0.679645408048277  0.926802679429839  0.387746643700298  1.0000
  H   H26       1.0  0.3203545917838447  0.0731973204336127  0.612253356291992  1.0000
  C   C1        1.0  0.27867801163589845  0.3209162261460015  0.8407730190086814  1.0000
  C   C2        1.0  0.7213219881962231  0.6790837737174501  0.1592269809836086  1.0000
  C   C3        1.0  0.30288067607041  0.3222204589864872  0.9451546142272667  1.0000
  C   C4        1.0  0.6971193236508814  0.6777795418585083  0.054845385773029574  1.0000
  C   C5        1.0  0.45179016984540293  0.3338293794271203  0.9490107727977223  1.0000
  C   C6        1.0  0.5482098299867187  0.6661706204363312  0.050989227194567555  1.0000
  C   C7        1.0  0.5677209519925884  0.3514420407706465  0.8394252085076661  1.0000
  C   C8        1.0  0.43227904783953314  0.6485579590928052  0.16057479148462378  1.0000
  C   C9        1.0  0.548427768731121  0.3571165604550927  0.729737661619626  1.0000
  C   C10       1.0  0.4515722321077644  0.6428834393987034  0.2702623383696799  1.0000
  C   C11       1.0  0.3983933084736064  0.33220300334435  0.7274099528809289  1.0000
  C   C12       1.0  0.6016066913585153  0.6677969965191016  0.2725900471113609  1.0000
  C   C13       1.0  0.011808061757798992  0.013024050057996154  0.1158905469262831  1.0000
  C   C14       1.0  0.9881919380743227  0.9869759498054556  0.884109453066007  1.0000
  C   C15       1.0  0.8632572065972693  0.019000549776891498  0.1054941077322442  1.0000
  C   C16       1.0  0.13674279323485236  0.98099945008656  0.8945058922600458  1.0000
  C   C17       1.0  0.8619127488307079  0.007907028637723945  0.986192387104551  1.0000
  C   C18       1.0  0.13808725100141367  0.9920929712257277  0.013807612887738997  1.0000
  C   C19       1.0  0.13048281539966716  0.385462153793214  0.4020112713267611  1.0000
  C   C20       1.0  0.8695171844324545  0.6145378460702375  0.5979887286655288  1.0000
  C   C21       1.0  0.11423172440459463  0.3118663483912365  0.5037101553343389  1.0000
  C   C22       1.0  0.8857682764342907  0.6881336514625597  0.496289844654967  1.0000
  C   C23       1.0  0.9312257670627722  0.3055475813213623  0.38789791789576766  1.0000
  C   C24       1.0  0.06877423377611327  0.6944524185324339  0.6121020820935382  1.0000
  C   C25       1.0  0.8203253862073555  0.3227053591112293  0.33262542184059435  1.0000
  C   C26       1.0  0.17967461362476636  0.6772946407522223  0.6673745781516955  1.0000
  C   C27       1.0  0.8583937771096976  0.32851193951125096  0.20820957749563918  1.0000
  C   C28       1.0  0.14160622272242418  0.6714880603522007  0.7917904224966508  1.0000
  C   C29       1.0  0.7488075743081152  0.339844512168497  0.1621589399053916  1.0000
  C   C30       1.0  0.25119242552400645  0.6601554876949548  0.8378410600868983  1.0000
  C   C31       1.0  0.601787674572037  0.3483318173219399  0.24020043218915132  1.0000
  C   C32       1.0  0.3982123252600847  0.6516681825415118  0.7597995678031385  1.0000
  C   C33       1.0  0.5688373972744628  0.34943390114169526  0.36328592706539337  1.0000
  C   C34       1.0  0.4311626025576588  0.6505660987217564  0.6367140729268966  1.0000
  C   C35       1.0  0.9281829671660071  0.2172974046518846  0.48005315807897575  1.0000
  C   C36       1.0  0.07181703367287824  0.7827025952019115  0.5199468419103302  1.0000
  C   C37       1.0  0.8289682017254375  0.11437811586652549  0.5171642356705718  1.0000
  C   C38       1.0  0.17103179810668417  0.8856218839969262  0.48283576432171815  1.0000
  C   C39       1.0  0.7659259547493853  0.08322175344627997  0.6384333917581735  1.0000
  C   C40       1.0  0.23407404508273652  0.9167782464171716  0.36156660823411646  1.0000
  C   C41       1.0  0.6601774048346539  0.9971998956857957  0.6711675814480201  1.0000
  C   C42       1.0  0.33982259499746775  0.00280010417765589  0.3288324185442698  1.0000
  C   C43       1.0  0.6233508079062456  0.9425207765867724  0.5819468398945129  1.0000
  C   C44       1.0  0.37664919192587615  0.057479223276679314  0.418053160097777  1.0000
  C   C45       1.0  0.6980709256058094  0.9716448599924227  0.4620852963152808  1.0000
  C   C46       1.0  0.30192907422631227  0.028355139871028896  0.5379147036770092  1.0000
  N   N1        1.0  0.03743575784127322  0.38382426690020965  0.34616661292971257  1.0000
  N   N2        1.0  0.9625642419908484  0.6161757329632419  0.6538333870625774  1.0000
  N   N3        1.0  0.017069110283126607  0.22585208809087345  0.5394884072442888  1.0000
  N   N4        1.0  0.9829308895489953  0.7741479117725784  0.4605115927480011  1.0000
  N   N5        1.0  0.6764062874551997  0.3365183723887752  0.40590566584239474  1.0000
  N   N6        1.0  0.323593712376922  0.6634816274746764  0.5940943341498952  1.0000
  N   N7        1.0  0.798144158981437  0.055916182889971466  0.4304311631272988  1.0000
  N   N8        1.0  0.20185584085068495  0.9440838169734801  0.569568836864991  1.0000
  O   O1        1.0  0.20196251838787155  0.3146029889326893  0.05440405388606799  1.0000
  O   O2        1.0  0.7980374814442501  0.6853970109307623  0.945595946106222  1.0000
  O   O3        1.0  0.4523054340130154  0.32932268160051936  0.05352282241369637  1.0000
  O   O4        1.0  0.5476945658191065  0.6706773182629323  0.9464771775785935  1.0000
  O   O5        1.0  0.6451674838526071  0.382689191367318  0.6302415295019379  1.0000
  O   O6        1.0  0.3548325159795146  0.6173108084961337  0.36975847049035204  1.0000
  O   O7        1.0  0.38837650980859856  0.32676328461848353  0.6277649831889812  1.0000
  O   O8        1.0  0.6116234900235231  0.6732367152449681  0.37223501680330867  1.0000
  O   O9        1.0  0.013245033737463328  0.02906157868792415  0.22357773950001666  1.0000
  O   O10       1.0  0.9867549660946583  0.9709384211755275  0.7764222604922733  1.0000
  O   O11       1.0  0.7517464608021602  0.03376828014417468  0.1997376776316141  1.0000
  O   O12       1.0  0.2482535390299615  0.9662317197192771  0.8002623223606758  1.0000
  Br  Br1       1.0  0.09157539417022151  0.3067283626869453  0.8395126117602876  1.0000
  Br  Br2       1.0  0.9084246056619002  0.6932716371765064  0.16048738823200234  1.0000
  Br  Br3       1.0  0.7524024363950322  0.379499938081581  0.8395677464373762  1.0000
  Br  Br4       1.0  0.2475975634370895  0.6205000617818707  0.16043225355491375  1.0000
  Br  Br5       1.0  0.6757099905624022  0.022835676468511642  0.9762156013553803  1.0000
  Br  Br6       1.0  0.3242900092697195  0.9771643233949401  0.023784398636909634  1.0000
