data_image0
_chemical_formula_structural       H54C48N2O2F4I2
_chemical_formula_sum              "H54 C48 N2 O2 F4 I2"
_cell_length_a       7.462078382130431
_cell_length_b       12.528556350494483
_cell_length_c       13.104004615863401
_cell_angle_alpha    114.12186798343039
_cell_angle_beta     91.25007356300935
_cell_angle_gamma    106.8712313155695

_space_group_name_H-M_alt    "P 1"
_space_group_IT_number       1

loop_
  _space_group_symop_operation_xyz
  'x, y, z'

loop_
  _atom_site_type_symbol
  _atom_site_label
  _atom_site_symmetry_multiplicity
  _atom_site_fract_x
  _atom_site_fract_y
  _atom_site_fract_z
  _atom_site_occupancy
  H   H1        1.0  0.05840026572687864  0.6196352176337298  0.34114214577517077  1.0000
  H   H2        1.0  0.9415997345540116  0.38036478224489223  0.6588578539972224  1.0000
  H   H3        1.0  0.15295414231330293  0.8447538920420674  0.3978007582829805  1.0000
  H   H4        1.0  0.8470458579675872  0.15524610783655454  0.6021992414894127  1.0000
  H   H5        1.0  0.9128668540476705  0.7572893821783923  0.05787850279344083  1.0000
  H   H6        1.0  0.0871331462332198  0.24271061770022975  0.9421214969789524  1.0000
  H   H7        1.0  0.8252478543404144  0.5350444828387309  0.016969810141971464  1.0000
  H   H8        1.0  0.17475214594047594  0.4649555170398911  0.9830301896304217  1.0000
  H   H9        1.0  0.042438941217370525  0.9677320053837927  0.18445736900651605  1.0000
  H   H10       1.0  0.9575610592944899  0.03226799490005086  0.8155426316130284  1.0000
  H   H11       1.0  0.18302944898056336  0.03536259087118307  0.4329807456400404  1.0000
  H   H12       1.0  0.8169705513003268  0.9646374090074389  0.5670192541323528  1.0000
  H   H13       1.0  0.1022825345799383  0.15000394244643173  0.21056579820414753  1.0000
  H   H14       1.0  0.8977174663277646  0.8499960586696912  0.789434202411669  1.0000
  H   H15       1.0  0.1399897767138194  0.36742019695899775  0.2606265164636962  1.0000
  H   H16       1.0  0.860010222224286  0.6325798029140074  0.7393734833093948  1.0000
  H   H17       1.0  0.31136907849354967  0.46388036937663535  0.6123182843270576  1.0000
  H   H18       1.0  0.6886309220183108  0.5361196309072083  0.387681716292487  1.0000
  H   H19       1.0  0.27116018541828335  0.24564385238707584  0.5626593714663664  1.0000
  H   H20       1.0  0.7288398135198221  0.7543561474859294  0.43734062830672477  1.0000
  H   H21       1.0  0.4346909167001332  0.6513811442009172  0.604700257026296  1.0000
  H   H22       1.0  0.5653090822379722  0.34861885567208806  0.3952997427467952  1.0000
  H   H23       1.0  0.19185416703020922  0.6197133695059329  0.6251084626243155  1.0000
  H   H24       1.0  0.8081458334816511  0.38028663077791064  0.3748915379952289  1.0000
  H   H25       1.0  0.14651279464354416  0.7465349582325823  0.5285489573305969  1.0000
  H   H26       1.0  0.8534872058683162  0.25346504205126125  0.4714510432889476  1.0000
  H   H27       1.0  0.3836283624248667  0.7721594720756579  0.5012999889915292  1.0000
  H   H28       1.0  0.6163716378560236  0.22784052780296402  0.49870001078086407  1.0000
  H   H29       1.0  0.4967769823745304  0.8847485191466364  0.7145884012750242  1.0000
  H   H30       1.0  0.50322301813733  0.1152514811372071  0.2854115993445202  1.0000
  H   H31       1.0  0.2580164399689964  0.8675385633887849  0.7342689720561071  1.0000
  H   H32       1.0  0.7419835603118938  0.13246143648983724  0.26573102771628626  1.0000
  H   H33       1.0  0.47236156407074836  0.9950902733486754  0.595666595019737  1.0000
  H   H34       1.0  0.527638436210142  0.004909726529946633  0.40433340475265633  1.0000
  H   H35       1.0  0.23454329959268716  0.9798602651983093  0.6160847633742509  1.0000
  H   H36       1.0  0.7654567013150158  0.020139735917813765  0.38391523724156573  1.0000
  H   H37       1.0  0.5814646056642848  0.12304462796932752  0.8040457804200158  1.0000
  H   H38       1.0  0.41853539327382056  0.8769553719036777  0.19595421935307533  1.0000
  H   H39       1.0  0.3450145607410066  0.10962589999921289  0.8254701021456996  1.0000
  H   H40       1.0  0.6549854381970988  0.8903740998737923  0.17452989762739146  1.0000
  H   H41       1.0  0.5374940033767679  0.21684367022735934  0.6681446673821484  1.0000
  H   H42       1.0  0.46250599713509244  0.7831563300564843  0.33185533323739613  1.0000
  H   H43       1.0  0.31413686027387155  0.21758641829031777  0.7093912353532733  1.0000
  H   H44       1.0  0.6858631400070186  0.7824135815883043  0.29060876441912  1.0000
  H   H45       1.0  0.4758205618636338  0.3571199384050693  0.911005467033813  1.0000
  H   H46       1.0  0.5241794384172563  0.6428800614735526  0.08899453273858017  1.0000
  H   H47       1.0  0.6958509078380725  0.352424159328527  0.867693375065182  1.0000
  H   H48       1.0  0.3041490924428178  0.6475758405500951  0.13230662470721125  1.0000
  H   H49       1.0  0.6447212748915059  0.44813619828910795  0.7365411510556192  1.0000
  H   H50       1.0  0.35527872538938426  0.551863801589514  0.263458848716774  1.0000
  H   H51       1.0  0.6420572312592787  0.5465601141779972  0.8794759002911683  1.0000
  H   H52       1.0  0.35794276925258167  0.45343988610584635  0.12052410032837609  1.0000
  H   H53       1.0  0.4268128982606492  0.45691128445722384  0.7847691853983724  1.0000
  H   H54       1.0  0.573187102020241  0.5430887154213982  0.21523081437402092  1.0000
  C   C1        1.0  0.6045076602133813  0.12892973123647358  0.045321657726160675  1.0000
  C   C2        1.0  0.395492340067509  0.8710702686421484  0.9546783420462326  1.0000
  C   C3        1.0  0.6950128430164157  0.040010217731189415  0.015709779757761676  1.0000
  C   C4        1.0  0.30498715592168957  0.9599897821418157  0.9842902200153294  1.0000
  C   C5        1.0  0.40683660111811487  0.08603643044574412  0.028272554699580038  1.0000
  C   C6        1.0  0.5931633991627754  0.9139635694328779  0.9717274450728133  1.0000
  C   C7        1.0  0.027131977168329317  0.654063909287509  0.2809995477706203  1.0000
  C   C8        1.0  0.9728680231125609  0.345936090591113  0.7190004520017729  1.0000
  C   C9        1.0  0.0799518819765727  0.7803441927466758  0.3120715623586801  1.0000
  C   C10       1.0  0.9200481185352877  0.21965580753716787  0.6879284382608644  1.0000
  C   C11       1.0  0.038287731643787876  0.8229365956692958  0.23292908657114345  1.0000
  C   C12       1.0  0.9617122686371024  0.17706340420932612  0.7670709132012498  1.0000
  C   C13       1.0  0.9471063127769623  0.7312386920641043  0.12385636938799201  1.0000
  C   C14       1.0  0.05289368773489799  0.26876130821973926  0.8761436312315524  1.0000
  C   C15       1.0  0.8983635418107998  0.6069960755514208  0.10050314117121821  1.0000
  C   C16       1.0  0.10163645847009053  0.39300392432720127  0.899496858601175  1.0000
  C   C17       1.0  0.0792870822975865  0.952192948589222  0.25724008784193825  1.0000
  C   C18       1.0  0.9207129182142739  0.047807051694621565  0.7427599127776062  1.0000
  C   C19       1.0  0.14934736798267068  0.0509564345013368  0.3595649512684596  1.0000
  C   C20       1.0  0.8506526322982195  0.9490435653772852  0.6404350485039336  1.0000
  C   C21       1.0  0.1805526047401745  0.17936902573951713  0.3836404411224524  1.0000
  C   C22       1.0  0.8194473944289009  0.8206309745387096  0.61635955949779  1.0000
  C   C23       1.0  0.14709095909136208  0.21710374178798234  0.29896306386719546  1.0000
  C   C24       1.0  0.8529090400777133  0.7828962584902444  0.7010369367530468  1.0000
  C   C25       1.0  0.1687089017837456  0.339267860052119  0.32596930549905045  1.0000
  C   C26       1.0  0.8312910984971448  0.660732139826503  0.6740306942733427  1.0000
  C   C27       1.0  0.2250360224062312  0.429398314174937  0.43928042782318805  1.0000
  C   C28       1.0  0.7749639781056292  0.5706016861089066  0.5607195727963564  1.0000
  C   C29       1.0  0.26483679887861816  0.39537180637790836  0.5244987766291525  1.0000
  C   C30       1.0  0.7351632014022721  0.6046281935007136  0.47550122314324067  1.0000
  C   C31       1.0  0.24215922913499785  0.27167982003103025  0.49580428972842827  1.0000
  C   C32       1.0  0.7578407700340778  0.7283201802471967  0.5041957108918141  1.0000
  C   C33       1.0  0.29215820795749053  0.6429234066705023  0.5710105031909747  1.0000
  C   C34       1.0  0.7078417923233997  0.3570765932081197  0.4289894965814186  1.0000
  C   C35       1.0  0.2912633416348002  0.7596103632656531  0.5628800460654592  1.0000
  C   C36       1.0  0.7087366586460901  0.24038963661296883  0.43711995370693413  1.0000
  C   C37       1.0  0.3579228233202766  0.8755917858301108  0.675075084300114  1.0000
  C   C38       1.0  0.6420771769606136  0.12440821404851131  0.32492491547227925  1.0000
  C   C39       1.0  0.3738355369621061  0.9904181753806944  0.6566328023336958  1.0000
  C   C40       1.0  0.6261644633187842  0.00958182449792759  0.3433671974386974  1.0000
  C   C41       1.0  0.44211975850486235  0.11216124990184421  0.7636295589179019  1.0000
  C   C42       1.0  0.557880240664213  0.8878387503763826  0.23637044170234064  1.0000
  C   C43       1.0  0.4573671598504507  0.22311900986193312  0.7389917151732195  1.0000
  C   C44       1.0  0.5426328404304395  0.7768809900166889  0.2610082845991737  1.0000
  C   C45       1.0  0.5533923911971625  0.3487504771991547  0.8389209618557238  1.0000
  C   C46       1.0  0.44660760908372765  0.6512495226794673  0.1610790379166694  1.0000
  C   C47       1.0  0.5681816926057842  0.4559346440475409  0.8085911879274807  1.0000
  C   C48       1.0  0.431818307675106  0.5440653558310811  0.1914088118449125  1.0000
  N   N1        1.0  0.9357667136489264  0.5675226990101495  0.177209988364075  1.0000
  N   N2        1.0  0.06423328686293385  0.43247730127369416  0.8227900122554694  1.0000
  O   O1        1.0  0.23521400962400818  0.545490358555483  0.4568044765087302  1.0000
  O   O2        1.0  0.7647859912836948  0.45450964256064  0.5431955241070866  1.0000
  F   F1        1.0  0.8878319885517342  0.07569955054891692  0.030162050832289643  1.0000
  F   F2        1.0  0.11216801196012631  0.9243004497349268  0.9698379497872548  1.0000
  F   F3        1.0  0.30920475057083635  0.1675896679180857  0.05355697930342449  1.0000
  F   F4        1.0  0.690795249941024  0.832410332365758  0.9464430213161201  1.0000
  I   I1        1.0  0.7585118400215154  0.3212858343453833  0.11074023219099953  1.0000
  I   I2        1.0  0.24148816025937483  0.6787141655332387  0.8892597675813937  1.0000
