data_image0
_chemical_formula_structural       H76C56N4O24
_chemical_formula_sum              "H76 C56 N4 O24"
_cell_length_a       5.389556927431516
_cell_length_b       10.635409327825805
_cell_length_c       25.656108405362804
_cell_angle_alpha    90.0
_cell_angle_beta     94.57772174936993
_cell_angle_gamma    90.0

_space_group_name_H-M_alt    "P 1"
_space_group_IT_number       1

loop_
  _space_group_symop_operation_xyz
  'x, y, z'

loop_
  _atom_site_type_symbol
  _atom_site_label
  _atom_site_symmetry_multiplicity
  _atom_site_fract_x
  _atom_site_fract_y
  _atom_site_fract_z
  _atom_site_occupancy
  H   H1        1.0  0.7169069342777067  0.5976289086843601  0.671616938214461  1.0000
  H   H2        1.0  0.2830930656476037  0.09762890905227287  0.828383061581961  1.0000
  H   H3        1.0  0.28309306670540574  0.4023710915200697  0.3283830616364007  1.0000
  H   H4        1.0  0.7169069334741918  0.902371091152157  0.17161693823454302  1.0000
  H   H5        1.0  0.8756086791569491  0.557264943672046  0.7331018314549427  1.0000
  H   H6        1.0  0.12439132076836128  0.05726494403995874  0.7668981683414793  1.0000
  H   H7        1.0  0.12439131996484622  0.4427350555921285  0.2668981683615613  1.0000
  H   H8        1.0  0.8756086802147512  0.942735056164471  0.23310183150938235  1.0000
  H   H9        1.0  0.4722265404226273  0.3167598449817914  0.819683182206558  1.0000
  H   H10       1.0  0.5277734594876352  0.8167598455541338  0.6803168179793696  1.0000
  H   H11       1.0  0.5277734586841201  0.6832401552226385  0.1803168179994517  1.0000
  H   H12       1.0  0.47222654148042936  0.1832401546502959  0.31968318226099773  1.0000
  H   H13       1.0  0.7396411735373826  0.19619497714495265  0.7656277832403072  1.0000
  H   H14       1.0  0.2603588263879278  0.6961949767770399  0.7343722165561147  1.0000
  H   H15       1.0  0.2603588274457298  0.8038050230594771  0.23437221661055455  1.0000
  H   H16       1.0  0.7396411727338676  0.3038050224871346  0.26562778326038916  1.0000
  H   H17       1.0  0.6735424836941142  0.20461967780650367  0.6677450265432113  1.0000
  H   H18       1.0  0.32645751621614827  0.7046196774385909  0.8322549736427163  1.0000
  H   H19       1.0  0.3264575172739503  0.7953803223979261  0.33225497369715606  1.0000
  H   H20       1.0  0.6735424828905991  0.29538032276583887  0.16774502656329335  1.0000
  H   H21       1.0  0.32993358060054456  0.3351768324208674  0.6265009540852211  1.0000
  H   H22       1.0  0.6700664193247658  0.8351768320529547  0.8734990457112008  1.0000
  H   H23       1.0  0.6700664203825679  0.6648231677835623  0.3734990457656406  1.0000
  H   H24       1.0  0.32993357979702953  0.16482316721121984  0.12650095410530315  1.0000
  H   H25       1.0  0.2952647847611228  0.4711627522308443  0.8564011228478956  1.0000
  H   H26       1.0  0.7047352151491398  0.9711627518629317  0.643598877338032  1.0000
  H   H27       1.0  0.7047352162069418  0.5288372479735856  0.1435988773924717  1.0000
  H   H28       1.0  0.29526478397265565  0.028837247401242976  0.35640112247847194  1.0000
  H   H29       1.0  0.07175829973265131  0.348272942378346  0.8460330577798374  1.0000
  H   H30       1.0  0.9282417001776112  0.8482729429506887  0.6539669424060903  1.0000
  H   H31       1.0  0.9282416993740962  0.6517270578260839  0.15396694242617232  1.0000
  H   H32       1.0  0.07175830079045335  0.15172705725374128  0.3460330578342771  1.0000
  H   H33       1.0  0.7283925542166664  0.5119868255332265  0.8407599612064973  1.0000
  H   H34       1.0  0.271607445708644  0.011986824960883916  0.6592400385899246  1.0000
  H   H35       1.0  0.27160744676644605  0.4880131746712033  0.15924003864436437  1.0000
  H   H36       1.0  0.7283925534131513  0.9880131752435458  0.3407599612265793  1.0000
  H   H37       1.0  0.9532181243844464  0.6318902143631788  0.8535907258781299  1.0000
  H   H38       1.0  0.046781875525816086  0.1318902137908363  0.6464092743077977  1.0000
  H   H39       1.0  0.04678187472230102  0.368109785841251  0.14640927432787978  1.0000
  H   H40       1.0  0.9532181254572965  0.8681097854733383  0.35359072554306387  1.0000
  H   H41       1.0  0.9100818705069352  0.515710923852261  0.9018415443906747  1.0000
  H   H42       1.0  0.08991812940332726  0.015710923279918423  0.598158455795253  1.0000
  H   H43       1.0  0.08991812859981221  0.48428907635216883  0.09815845581533504  1.0000
  H   H44       1.0  0.9100818697034203  0.9842890759842561  0.4018415444107567  1.0000
  H   H45       1.0  0.7275017186288831  0.48620139485097713  0.5931125847185358  1.0000
  H   H46       1.0  0.2724982812964273  0.9862013954233197  0.9068874150778861  1.0000
  H   H47       1.0  0.2724982804929122  0.5137986044131974  0.4068874150979682  1.0000
  H   H48       1.0  0.7275017196866852  0.01379860478111009  0.09311258477297552  1.0000
  H   H49       1.0  0.4254836827557828  0.9453488192217396  0.46343142395661313  1.0000
  H   H50       1.0  0.5745163174238147  0.44534881864939707  0.036568575914330555  1.0000
  H   H51       1.0  0.5745163182273296  0.054651180982690235  0.5365685758942486  1.0000
  H   H52       1.0  0.42548368169798073  0.5546511806147775  0.9634314239021734  1.0000
  H   H53       1.0  0.10998557519886472  0.5377011719744563  0.5362223362714813  1.0000
  H   H54       1.0  0.8900144247264457  0.037701171402113744  0.9637776635249405  1.0000
  H   H55       1.0  0.8900144239229306  0.4622988282299735  0.46377766354502264  1.0000
  H   H56       1.0  0.10998557625666673  0.9622988278620607  0.036222336325921034  1.0000
  H   H57       1.0  0.3110126586828343  0.6218109323444289  0.49908752377130533  1.0000
  H   H58       1.0  0.6889873414967632  0.12181093271234165  0.0009124760996384249  1.0000
  H   H59       1.0  0.6889873404389611  0.3781890678600009  0.5009124760451987  1.0000
  H   H60       1.0  0.3110126594863493  0.8781890674920882  0.9990875237512232  1.0000
  H   H61       1.0  0.9784891678470771  0.7582250782677237  0.4592445294041505  1.0000
  H   H62       1.0  0.021510832332520394  0.25822507863563643  0.04075547046679316  1.0000
  H   H63       1.0  0.021510833136035447  0.2417749219367061  0.5407554704467111  1.0000
  H   H64       1.0  0.978489166774227  0.7417749215687934  0.9592445297392165  1.0000
  H   H65       1.0  0.7665316302202486  0.6666263771767189  0.49036194561964513  1.0000
  H   H66       1.0  0.23346836995934883  0.16662637754463167  0.00963805425129855  1.0000
  H   H67       1.0  0.23346836890154685  0.3333736230277109  0.5096380541968588  1.0000
  H   H68       1.0  0.7665316310237636  0.8333736226597982  0.9903619455995631  1.0000
  H   H69       1.0  0.1910827829162637  0.8228663044593011  0.5469029528755273  1.0000
  H   H70       1.0  0.8089172170090466  0.32286630388695853  0.9530970469208948  1.0000
  H   H71       1.0  0.8089172162055318  0.17713369574512872  0.4530970469409768  1.0000
  H   H72       1.0  0.19108278397406578  0.6771336963174712  0.046902952929966955  1.0000
  H   H73       1.0  0.97516456664577  0.7332362384583649  0.5791810856450427  1.0000
  H   H74       1.0  0.024835433279540558  0.2332362378860223  0.9208189141513793  1.0000
  H   H75       1.0  0.024835432476025498  0.266763761746065  0.4208189141714614  1.0000
  H   H76       1.0  0.975164567703572  0.7667637613781522  0.0791810856994823  1.0000
  C   C1        1.0  0.20695958986698063  0.40243093406870906  0.6987248050074836  1.0000
  C   C2        1.0  0.7930404100583297  0.9024309337007963  0.8012751947889384  1.0000
  C   C3        1.0  0.7930404111161319  0.5975690661357207  0.30127519484337817  1.0000
  C   C4        1.0  0.20695958906346562  0.0975690665036335  0.1987248050275655  1.0000
  C   C5        1.0  0.24961530366800935  0.39860631399568786  0.7539797360970658  1.0000
  C   C6        1.0  0.750384696257301  0.8986063136277751  0.746020263699356  1.0000
  C   C7        1.0  0.7503846954537859  0.601393686208742  0.2460202637194381  1.0000
  C   C8        1.0  0.24961530472581142  0.10139368657665475  0.25397973615150565  1.0000
  C   C9        1.0  0.44111609126679985  0.3236631185406107  0.7773934208241763  1.0000
  C   C10       1.0  0.5588839086434626  0.8236631181726979  0.7226065793617513  1.0000
  C   C11       1.0  0.5588839078549955  0.6763368816638192  0.2226065789923277  1.0000
  C   C12       1.0  0.44111609232460186  0.17633688109147658  0.277393420878616  1.0000
  C   C13       1.0  0.592427466181815  0.25413676678418384  0.74651958175122  1.0000
  C   C14       1.0  0.40757253374349556  0.7541367664162711  0.7534804180452018  1.0000
  C   C15       1.0  0.40757253293998047  0.745863233420246  0.253480418065284  1.0000
  C   C16       1.0  0.5924274672396169  0.24586323378815875  0.2465195818056597  1.0000
  C   C17       1.0  0.5555384856710779  0.2582636300432374  0.6921029570271029  1.0000
  C   C18       1.0  0.4444615142391846  0.7582636296753246  0.8078970431588247  1.0000
  C   C19       1.0  0.44446151343566953  0.7417363701611924  0.3078970431789067  1.0000
  C   C20       1.0  0.5555384867288798  0.24173637052910515  0.19210295708154268  1.0000
  C   C21       1.0  0.36388260256941574  0.3314866773182031  0.6688768361850924  1.0000
  C   C22       1.0  0.6361173973408468  0.8314866778905456  0.8311231640008353  1.0000
  C   C23       1.0  0.6361173983986488  0.6685133228862267  0.3311231640552751  1.0000
  C   C24       1.0  0.3638826017659007  0.16851332231388416  0.16887683620517435  1.0000
  C   C25       1.0  0.002045692186698359  0.47218127814424365  0.6691650073501927  1.0000
  C   C26       1.0  0.997954307738612  0.9721812787165862  0.8308349924462294  1.0000
  C   C27       1.0  0.997954306935097  0.5278187211199309  0.33083499246631143  1.0000
  C   C28       1.0  0.0020456932445003973  0.027818721487843603  0.16916500740463225  1.0000
  C   C29       1.0  0.10772310917742145  0.4484083454618598  0.8387625256173932  1.0000
  C   C30       1.0  0.8922768925941582  0.948408345093947  0.6612374746028921  1.0000
  C   C31       1.0  0.8922768917906432  0.55159165474257  0.16123747462297414  1.0000
  C   C32       1.0  0.10772310837390636  0.05159165511048274  0.3387625256374753  1.0000
  C   C33       1.0  0.9133817175868816  0.5321568776099954  0.8598018096278518  1.0000
  C   C34       1.0  0.08661828233842876  0.0321568770376528  0.6401981901685702  1.0000
  C   C35       1.0  0.08661828339623079  0.4678431225944345  0.1401981902230099  1.0000
  C   C36       1.0  0.9133817167833668  0.9678431231667771  0.3598018096479338  1.0000
  C   C37       1.0  0.43530630198888687  0.5989345913874854  0.5783927123683442  1.0000
  C   C38       1.0  0.5646936979364235  0.0989345908151429  0.9216072874280777  1.0000
  C   C39       1.0  0.5646936971329085  0.40106540881694436  0.42160728744815973  1.0000
  C   C40       1.0  0.435306303046689  0.9010654084490316  0.07839271242278395  1.0000
  C   C41       1.0  0.7144470284044666  0.861886372912542  0.4976444792874883  1.0000
  C   C42       1.0  0.2855529717751308  0.36188637328045475  0.0023555205834554557  1.0000
  C   C43       1.0  0.28555297257864587  0.13811362729188778  0.5023555205633734  1.0000
  C   C44       1.0  0.7144470273316167  0.638113626923975  0.9976444796225543  1.0000
  C   C45       1.0  0.2278994794213815  0.622126167978212  0.5368666877606947  1.0000
  C   C46       1.0  0.772100520488881  0.12212616834612476  0.963133312425233  1.0000
  C   C47       1.0  0.7721005215466831  0.3778738322262178  0.4631333124796727  1.0000
  C   C48       1.0  0.2278994786178664  0.877873831858305  0.03686668778077669  1.0000
  C   C49       1.0  0.8842332696893318  0.7510510440911192  0.4957911178774326  1.0000
  C   C50       1.0  0.11576673049026556  0.2510510435187767  0.004208881993511108  1.0000
  C   C51       1.0  0.11576673127873266  0.24894895611331055  0.5042088823629348  1.0000
  C   C52       1.0  0.8842332686315298  0.7489489557453979  0.9957911178229928  1.0000
  C   C53       1.0  0.07207048621315984  0.7389449110753323  0.5431610046422568  1.0000
  C   C54       1.0  0.9279295136971027  0.2389449114432451  0.9568389955436708  1.0000
  C   C55       1.0  0.9279295147549047  0.2610550891290975  0.4568389955981105  1.0000
  C   C56       1.0  0.07207048540964478  0.7610550887611848  0.04316100466233884  1.0000
  N   N1        1.0  0.8599815832877193  0.5533114644307731  0.6934160127524392  1.0000
  N   N2        1.0  0.14001841663759113  0.05331146385843049  0.8065839870439828  1.0000
  N   N3        1.0  0.1400184158340761  0.44668853577365675  0.3065839870640648  1.0000
  N   N4        1.0  0.8599815843455214  0.9466885354057439  0.19341601280687892  1.0000
  O   O1        1.0  0.9669605492813016  0.45362276535775464  0.6203449962191038  1.0000
  O   O2        1.0  0.03303945062896092  0.9536227649898419  0.8796550039668238  1.0000
  O   O3        1.0  0.033039449840493805  0.5463772348466751  0.37965500359740023  1.0000
  O   O4        1.0  0.9669605503391037  0.04637723427433264  0.12034499627354352  1.0000
  O   O5        1.0  0.09784889586595986  0.4686133139192356  0.7827619394986773  1.0000
  O   O6        1.0  0.9021511040443027  0.9686133144915782  0.7172380606872502  1.0000
  O   O7        1.0  0.9021511032407876  0.5313866862851943  0.2172380607073323  1.0000
  O   O8        1.0  0.09784889692376188  0.031386685712851706  0.2827619395531171  1.0000
  O   O9        1.0  0.48118394150517246  0.6652812169145211  0.6177042448116326  1.0000
  O   O10       1.0  0.5188160584201379  0.16528121728243378  0.8822957549847894  1.0000
  O   O11       1.0  0.5188160576166229  0.3347187832899088  0.3822957550048714  1.0000
  O   O12       1.0  0.48118394256297453  0.8347187829219961  0.11770424486607231  1.0000
  O   O13       1.0  0.5668747549350456  0.4982089185920598  0.5675471751807365  1.0000
  O   O14       1.0  0.433125244975217  0.998208918224147  0.9324528250051913  1.0000
  O   O15       1.0  0.43312524417170195  0.5017910816123701  0.4324528250252732  1.0000
  O   O16       1.0  0.5668747559928475  0.0017910819802827618  0.06754717523517614  1.0000
  O   O17       1.0  0.7426285573401579  0.9429929268223333  0.5328091710188556  1.0000
  O   O18       1.0  0.2573714425701048  0.4429929262499907  0.9671908291670719  1.0000
  O   O19       1.0  0.2573714436279068  0.05700707338209657  0.4671908292215117  1.0000
  O   O20       1.0  0.7426285565366426  0.557007073954439  0.032809171038937684  1.0000
  O   O21       1.0  0.5355867829422537  0.8661015026379877  0.45940463662704706  1.0000
  O   O22       1.0  0.4644132172373437  0.36610150206564507  0.04059536324389663  1.0000
  O   O23       1.0  0.4644132180408588  0.13389849756644218  0.5405953632238146  1.0000
  O   O24       1.0  0.5355867818694037  0.6338984981387847  0.959404636962113  1.0000
