data_image0
_chemical_formula_structural       H16C22N4F6I6
_chemical_formula_sum              "H16 C22 N4 F6 I6"
_cell_length_a       7.469763707877238
_cell_length_b       9.454173199786407
_cell_length_c       11.170671762890027
_cell_angle_alpha    74.67907665146686
_cell_angle_beta     84.42695569762677
_cell_angle_gamma    80.05340279457108

_space_group_name_H-M_alt    "P 1"
_space_group_IT_number       1

loop_
  _space_group_symop_operation_xyz
  'x, y, z'

loop_
  _atom_site_type_symbol
  _atom_site_label
  _atom_site_symmetry_multiplicity
  _atom_site_fract_x
  _atom_site_fract_y
  _atom_site_fract_z
  _atom_site_occupancy
  H   H1        1.0  0.39588648742974897  0.9915686073751779  0.278122913849056  1.0000
  H   H2        1.0  0.6041135116429002  0.008431392498501587  0.7218770861377473  1.0000
  H   H3        1.0  0.4440079531151316  0.9013610783648579  0.1543455594863599  1.0000
  H   H4        1.0  0.5559920459575177  0.09863892150882152  0.8456544405004432  1.0000
  H   H5        1.0  0.33485641619470374  0.26887636681695903  0.9213451117151426  1.0000
  H   H6        1.0  0.6651435839731163  0.7311236341349907  0.0786548882760729  1.0000
  H   H7        1.0  0.2133381681402736  0.31980774364002396  0.05288927135760926  1.0000
  H   H8        1.0  0.7866618309323756  0.6801922562336556  0.9471107286291939  1.0000
  H   H9        1.0  0.010241600565593157  0.16936896074033417  0.007071173880467206  1.0000
  H   H10       1.0  0.989758398507056  0.8306310391333456  0.9929288261063359  1.0000
  H   H11       1.0  0.19430335532143778  0.04540822826549855  0.9594790812581686  1.0000
  H   H12       1.0  0.8056966450884615  0.9545917716131604  0.04052091873116607  1.0000
  H   H13       1.0  0.11732329988746244  0.9132918757405721  0.1757341480819992  1.0000
  H   H14       1.0  0.8826767005224369  0.08670812413808685  0.8242658519073356  1.0000
  H   H15       1.0  0.08638839621095343  0.08080474919326328  0.2237239770699577  1.0000
  H   H16       1.0  0.9136116039568667  0.9191952517586865  0.7762760229212577  1.0000
  C   C1        1.0  0.7615519462920709  0.49772168143614665  0.4375570161397904  1.0000
  C   C2        1.0  0.23844805278057837  0.5022783184375329  0.5624429838470127  1.0000
  C   C3        1.0  0.7521719182176044  0.5080085083150607  0.6552266607236942  1.0000
  C   C4        1.0  0.24782808219229477  0.4919914915635983  0.34477333926564063  1.0000
  C   C5        1.0  0.7549824070590391  0.6604426613816454  0.6138472091069693  1.0000
  C   C6        1.0  0.24501759335086032  0.3395573384970134  0.3861527908823656  1.0000
  C   C7        1.0  0.7661498508907523  0.6502928645966732  0.4024482301189621  1.0000
  C   C8        1.0  0.23385014818189703  0.3497071352770063  0.5975517698678411  1.0000
  C   C9        1.0  0.762529884474979  0.7349344723026608  0.48814013832446734  1.0000
  C   C10       1.0  0.2374701145976702  0.2650655275710189  0.5118598616623359  1.0000
  C   C11       1.0  0.7546533043841296  0.4298144213941608  0.5648806968030847  1.0000
  C   C12       1.0  0.24534669602576967  0.5701855784844981  0.4351193031862501  1.0000
  C   C13       1.0  0.5699979945531444  0.18845735759969054  0.11124844650262353  1.0000
  C   C14       1.0  0.43000200585675485  0.8115426422789686  0.8887515534867113  1.0000
  C   C15       1.0  0.36813169296816084  0.9992685530200162  0.18177469443492225  1.0000
  C   C16       1.0  0.6318683074417384  0.0007314468586427362  0.8182253055544125  1.0000
  C   C17       1.0  0.2784872378680229  0.22562105153665507  0.015704637366829866  1.0000
  C   C18       1.0  0.7215127612046264  0.7743789483370246  0.9842953626199732  1.0000
  C   C19       1.0  0.1496567467907037  0.1138423969064729  0.02570989534688146  1.0000
  C   C20       1.0  0.8503432536191955  0.8861576029721862  0.9742901046424534  1.0000
  C   C21       1.0  0.16542921746482597  0.02006888009366912  0.15989358916587612  1.0000
  C   C22       1.0  0.834570782702994  0.9799311208582807  0.8401064108253392  1.0000
  N   N1        1.0  0.4256475860777684  0.1360801501576085  0.09705216393413008  1.0000
  N   N2        1.0  0.5743524143321309  0.8639198497210504  0.9029478360552047  1.0000
  N   N3        1.0  0.7038961801124907  0.23515322809531775  0.12014411707736485  1.0000
  N   N4        1.0  0.2961038202974085  0.7648467717833413  0.8798558829119699  1.0000
  F   F1        1.0  0.7483817649466672  0.7394650195133087  0.6993593463864859  1.0000
  F   F2        1.0  0.2516182354632321  0.2605349803653503  0.3006406536028489  1.0000
  F   F3        1.0  0.7740008702189975  0.719877457930419  0.27959085343155865  1.0000
  F   F4        1.0  0.22599913011399292  0.2801225416659144  0.7204091474873247  1.0000
  F   F5        1.0  0.7488727646380855  0.2819177870998849  0.6022947884689757  1.0000
  F   F6        1.0  0.25112723577181384  0.7180822127787742  0.39770521152035915  1.0000
  I   I1        1.0  0.7388821848095727  0.4040446759712561  0.8454022088350718  1.0000
  I   I2        1.0  0.26111781560032654  0.5959553239074029  0.15459779115426314  1.0000
  I   I3        1.0  0.7545680685363609  0.37959263386142417  0.3020386720570727  1.0000
  I   I4        1.0  0.24543193187353837  0.6204073660172347  0.6979613279322622  1.0000
  I   I5        1.0  0.7679826055698925  0.9633242731996465  0.4315784478246306  1.0000
  I   I6        1.0  0.23201739484000686  0.036675726679012664  0.5684215521647041  1.0000
