data_image0
_chemical_formula_structural       H32C32N8O4F8I4
_chemical_formula_sum              "H32 C32 N8 O4 F8 I4"
_cell_length_a       6.392793904942688
_cell_length_b       8.74593248256083
_cell_length_c       18.492623956346694
_cell_angle_alpha    77.77857261904911
_cell_angle_beta     81.07395064186967
_cell_angle_gamma    85.05169213984286

_space_group_name_H-M_alt    "P 1"
_space_group_IT_number       1

loop_
  _space_group_symop_operation_xyz
  'x, y, z'

loop_
  _atom_site_type_symbol
  _atom_site_label
  _atom_site_symmetry_multiplicity
  _atom_site_fract_x
  _atom_site_fract_y
  _atom_site_fract_z
  _atom_site_occupancy
  H   H1        1.0  0.30878510523932856  0.13571615358166444  0.07266311237538049  1.0000
  H   H2        1.0  0.6912148942346159  0.864283846326028  0.9273368873716261  1.0000
  H   H3        1.0  0.20820666845430114  0.33481206103145555  0.04871404015068394  1.0000
  H   H4        1.0  0.7917933325847588  0.665187938876614  0.9512859595942971  1.0000
  H   H5        1.0  0.5746141735963368  0.24433381132349052  0.22388006291129187  1.0000
  H   H6        1.0  0.42538582566023486  0.7556661883487513  0.7761199373945579  1.0000
  H   H7        1.0  0.5435856555539355  0.0775054434171759  0.18548910334032234  1.0000
  H   H8        1.0  0.4564143452677518  0.9224945562554431  0.8145108969635017  1.0000
  H   H9        1.0  0.9823097400632772  0.3116614103043021  0.17097666359273184  1.0000
  H   H10       1.0  0.017690260758409942  0.6883385893683169  0.8290233367110922  1.0000
  H   H11       1.0  0.939113819937029  0.14931477610668434  0.13050464454011018  1.0000
  H   H12       1.0  0.06088617931954256  0.8506852235655575  0.8694953557657394  1.0000
  H   H13       1.0  0.29200996871909324  0.07017762986090163  0.3018783558832239  1.0000
  H   H14       1.0  0.707990030754851  0.9298223700467906  0.6981216438637828  1.0000
  H   H15       1.0  0.19177552974998022  0.26595032434445703  0.26874206481268526  1.0000
  H   H16       1.0  0.8082244697239641  0.7340496755632354  0.7312579349343213  1.0000
  H   H17       1.0  0.21905515458659003  0.4120139150289066  0.8207400578156084  1.0000
  H   H18       1.0  0.7809448448873544  0.5879860848787857  0.1792599419313982  1.0000
  H   H19       1.0  0.16173453149331635  0.21986725844488217  0.8119131950659558  1.0000
  H   H20       1.0  0.8382654679806281  0.7801327414628102  0.18808680468105088  1.0000
  H   H21       1.0  0.5766030103803229  0.3633315998648884  0.8908299555899585  1.0000
  H   H22       1.0  0.42339698909362145  0.6366684000428039  0.10917004415704817  1.0000
  H   H23       1.0  0.541979072147781  0.169377405762751  0.8797373585786293  1.0000
  H   H24       1.0  0.4580209269741298  0.8306225950572869  0.12026264172691196  1.0000
  H   H25       1.0  0.12338651361862125  0.22794305326613323  0.9447109030908769  1.0000
  H   H26       1.0  0.8766134857206622  0.7720569477893552  0.055289096655821345  1.0000
  H   H27       1.0  0.9525841654325256  0.40201255898346644  0.9326536961518775  1.0000
  H   H28       1.0  0.04741583382404634  0.5979874406887754  0.06734630415397219  1.0000
  H   H29       1.0  0.8288993036095739  0.1899091979737315  0.7734948661926717  1.0000
  H   H30       1.0  0.17110069742948625  0.8100908019343381  0.22650513355230922  1.0000
  H   H31       1.0  0.6522699180748182  0.3600519731532689  0.7564260462584806  1.0000
  H   H32       1.0  0.3477300813991262  0.6399480267544234  0.2435739534885261  1.0000
  C   C1        1.0  0.6206801246564485  0.8352887393189008  0.43159641711287733  1.0000
  C   C2        1.0  0.379319874817496  0.16471126058879154  0.5684035826341294  1.0000
  C   C3        1.0  0.3568861662700922  0.6649940954358474  0.5550398692037396  1.0000
  C   C4        1.0  0.6431138330691916  0.33500590561964094  0.44496013054295874  1.0000
  C   C5        1.0  0.4398534284357588  0.767513149132276  0.42188087486142295  1.0000
  C   C6        1.0  0.5601465710381857  0.2324868507754163  0.5781191248855837  1.0000
  C   C7        1.0  0.6677307948481427  0.8165458466553556  0.5042827008579331  1.0000
  C   C8        1.0  0.3322692061909173  0.18345415325271403  0.4957172988870478  1.0000
  C   C9        1.0  0.30983520375513696  0.6843168326841645  0.4823282385459897  1.0000
  C   C10       1.0  0.690164797283923  0.31568316722390516  0.5176717611989913  1.0000
  C   C11       1.0  0.5387220428931488  0.7318002336424763  0.5645028669994444  1.0000
  C   C12       1.0  0.4612779581459112  0.2681997662655932  0.4354971327455365  1.0000
  C   C13       1.0  0.5702774579931033  0.37310261985662596  0.0865799485771197  1.0000
  C   C14       1.0  0.42972254148084127  0.6268973800510665  0.9134200511698869  1.0000
  C   C15       1.0  0.2481036185285741  0.2407966158361764  0.09485935832739424  1.0000
  C   C16       1.0  0.7518963809453704  0.7592033840715159  0.9051406414196124  1.0000
  C   C17       1.0  0.465861236914768  0.18766024922880117  0.19871129936945903  1.0000
  C   C18       1.0  0.5341387639069192  0.8123397504438179  0.801288700934365  1.0000
  C   C19       1.0  0.0551143415922496  0.20397881252960903  0.15339348164300953  1.0000
  C   C20       1.0  0.9448856593121495  0.7960211885262566  0.846606518101663  1.0000
  C   C21       1.0  0.26187774516285317  0.15703698145442638  0.25197467704332543  1.0000
  C   C22       1.0  0.7381222543110915  0.8429630184532659  0.7480253227036812  1.0000
  C   C23       1.0  0.7615664387920001  0.11016461899214026  0.9888610334668114  1.0000
  C   C24       1.0  0.23843356224705986  0.8898353809159293  0.011138966278169557  1.0000
  C   C25       1.0  0.0944677675094736  0.3282580563356604  0.8302951150590985  1.0000
  C   C26       1.0  0.9055322331775528  0.6717419444847547  0.1697048852444172  1.0000
  C   C27       1.0  0.6583240055654344  0.25835010792940877  0.8732907251091884  1.0000
  C   C28       1.0  0.34167599390850995  0.7416498919782835  0.12670927463781828  1.0000
  C   C29       1.0  0.003544438819026039  0.2935924470498801  0.9122581165769843  1.0000
  C   C30       1.0  0.9964555620853732  0.7064075540059856  0.0877418831676882  1.0000
  C   C31       1.0  0.7656333055333825  0.2977616037676508  0.7928290137500452  1.0000
  C   C32       1.0  0.234366693940562  0.7022383961400415  0.20717098599696154  1.0000
  N   N1        1.0  0.4151906831923662  0.29331042543412655  0.12942395878085167  1.0000
  N   N2        1.0  0.5848093160642054  0.7066895742381154  0.870576041524998  1.0000
  N   N3        1.0  0.7074946253465085  0.44983510704089963  0.05126161542708192  1.0000
  N   N4        1.0  0.2925053739100632  0.5501648926313422  0.9487383848787678  1.0000
  N   N5        1.0  0.821121551966691  0.19470169003196708  0.9219670201849443  1.0000
  N   N6        1.0  0.17887844907236897  0.8052983098761025  0.07803297956003667  1.0000
  N   N7        1.0  0.7117192526284206  0.030290168725242237  0.047809188020121525  1.0000
  N   N8        1.0  0.28828074819326677  0.9697098309473766  0.9521908122837025  1.0000
  O   O1        1.0  0.11120316059207899  0.09293392031340561  0.21788076113655286  1.0000
  O   O2        1.0  0.8887968403123202  0.90706608074246  0.7821192386081197  1.0000
  O   O3        1.0  0.9350349828717169  0.4012870153848132  0.7850622738319996  1.0000
  O   O4        1.0  0.06496501816734307  0.5987129845232563  0.21493772591298144  1.0000
  F   F1        1.0  0.387296698466868  0.7811696148915095  0.3523669398970979  1.0000
  F   F2        1.0  0.6127033023548192  0.21883038478110953  0.6476330604067261  1.0000
  F   F3        1.0  0.8393580514572119  0.8808673173121834  0.5176150934637874  1.0000
  F   F4        1.0  0.1606419480167325  0.11913268259550876  0.4823849062832193  1.0000
  F   F5        1.0  0.1375201081542759  0.6212396513857859  0.46906780108749196  1.0000
  F   F6        1.0  0.8624798913196685  0.3787603485219067  0.5309321986595146  1.0000
  F   F7        1.0  0.593275753881953  0.7148664601081716  0.6338225077887334  1.0000
  F   F8        1.0  0.4067242469397343  0.28513353956444754  0.3661774925150907  1.0000
  I   I1        1.0  0.1629366683679964  0.5437443432372452  0.6473523340977078  1.0000
  I   I2        1.0  0.837063331105948  0.45625565667044715  0.352647665649299  1.0000
  I   I3        1.0  0.8186159574087036  0.9541605573348535  0.34002877489210565  1.0000
  I   I4        1.0  0.18138404341298361  0.04583944233776554  0.6599712254117184  1.0000
