data_image0
_chemical_formula_structural       H32C32N4O4Cl8
_chemical_formula_sum              "H32 C32 N4 O4 Cl8"
_cell_length_a       16.275058096017762
_cell_length_b       6.3755371023495675
_cell_length_c       8.79609781850513
_cell_angle_alpha    90.0
_cell_angle_beta     111.76913197073084
_cell_angle_gamma    90.0

_space_group_name_H-M_alt    "P 1"
_space_group_IT_number       1

loop_
  _space_group_symop_operation_xyz
  'x, y, z'

loop_
  _atom_site_type_symbol
  _atom_site_label
  _atom_site_symmetry_multiplicity
  _atom_site_fract_x
  _atom_site_fract_y
  _atom_site_fract_z
  _atom_site_occupancy
  H   H1        1.0  0.4563656411651712  0.9999999996314715  0.24236677520884692  1.0000
  H   H2        1.0  0.956365641290311  0.49999999981573573  0.2423667750633471  1.0000
  H   H3        1.0  0.5436343589633859  0.9999999996314715  0.7576332237347287  1.0000
  H   H4        1.0  0.043634358838246026  0.49999999981573573  0.7576332238802287  1.0000
  H   H5        1.0  0.3423978209027706  0.9999999996314715  0.971106914757486  1.0000
  H   H6        1.0  0.842397820413723  0.49999999981573573  0.9711069146132315  1.0000
  H   H7        1.0  0.6576021794717848  0.9999999996314715  0.028893085410257452  1.0000
  H   H8        1.0  0.15760217910064672  0.49999999981573573  0.02889308433158949  1.0000
  H   H9        1.0  0.670821772727313  0.9999999996314715  0.5658673664595728  1.0000
  H   H10       1.0  0.1708217726021733  0.49999999981573573  0.5658673666050726  1.0000
  H   H11       1.0  0.32917822764724236  0.9999999996314715  0.43413263370817073  1.0000
  H   H12       1.0  0.8291782271581949  0.49999999981573573  0.4341326335639162  1.0000
  H   H13       1.0  0.7661959605736123  0.9999999996314715  0.4622392526598272  1.0000
  H   H14       1.0  0.2661959602024742  0.49999999981573573  0.4622392515811592  1.0000
  H   H15       1.0  0.23380403980094308  0.9999999996314715  0.5377607475079164  1.0000
  H   H16       1.0  0.7338040393118956  0.49999999981573573  0.5377607473636619  1.0000
  H   H17       1.0  0.5712477844153766  0.14108076003016612  0.4616725675833831  1.0000
  H   H18       1.0  0.0712477842902369  0.641080759845902  0.46167256772888293  1.0000
  H   H19       1.0  0.4287522153449916  0.14108076003016612  0.5383274325856057  1.0000
  H   H20       1.0  0.9287522154701313  0.641080759845902  0.538327432440106  1.0000
  H   H21       1.0  0.4287522153449916  0.8589192396013053  0.5383274325856057  1.0000
  H   H22       1.0  0.9287522154701313  0.3589192397855696  0.538327432440106  1.0000
  H   H23       1.0  0.5712477844153766  0.8589192396013053  0.4616725675833831  1.0000
  H   H24       1.0  0.0712477842902369  0.3589192397855696  0.46167256772888293  1.0000
  H   H25       1.0  0.740726478064766  0.1399776906123114  0.275306577295157  1.0000
  H   H26       1.0  0.24072647793962626  0.6399776904280472  0.2753065774406568  1.0000
  H   H27       1.0  0.2592735223097894  0.1399776906123114  0.7246934228725864  1.0000
  H   H28       1.0  0.759273522434929  0.6399776904280472  0.7246934227270866  1.0000
  H   H29       1.0  0.2592735223097894  0.8600223090191601  0.7246934228725864  1.0000
  H   H30       1.0  0.759273522434929  0.3600223092034244  0.7246934227270866  1.0000
  H   H31       1.0  0.740726478064766  0.8600223090191601  0.275306577295157  1.0000
  H   H32       1.0  0.24072647793962626  0.3600223092034244  0.2753065774406568  1.0000
  C   C1        1.0  0.9685544941254645  0.9999999996314715  0.1300995669430719  1.0000
  C   C2        1.0  0.4685544940003247  0.49999999981573573  0.13009956708857168  1.0000
  C   C3        1.0  0.03144550624909097  0.9999999996314715  0.8699004332246716  1.0000
  C   C4        1.0  0.5314455063742307  0.49999999981573573  0.8699004330791718  1.0000
  C   C5        1.0  0.06438169898665638  0.9999999996314715  0.16929318527239712  1.0000
  C   C6        1.0  0.564381699111796  0.49999999981573573  0.16929318512689734  1.0000
  C   C7        1.0  0.9356183013878989  0.9999999996314715  0.8307068148953464  1.0000
  C   C8        1.0  0.4356183012627592  0.49999999981573573  0.8307068150408461  1.0000
  C   C9        1.0  0.9086740256491308  0.9999999996314715  0.9722514330561621  1.0000
  C   C10       1.0  0.40867402552399096  0.49999999981573573  0.972251433201662  1.0000
  C   C11       1.0  0.09132597411123744  0.9999999996314715  0.027748567112826594  1.0000
  C   C12       1.0  0.5913259742363772  0.49999999981573573  0.027748566967326797  1.0000
  C   C13       1.0  0.47606724045107635  0.9999999996314715  0.13700104159994075  1.0000
  C   C14       1.0  0.9760672405762161  0.49999999981573573  0.13700104145444097  1.0000
  C   C15       1.0  0.5239327593092918  0.9999999996314715  0.8629989585690481  1.0000
  C   C16       1.0  0.02393275979833929  0.49999999981573573  0.8629989587133026  1.0000
  C   C17       1.0  0.5676998612375793  0.9999999996314715  0.16079609159964264  1.0000
  C   C18       1.0  0.06769986111243956  0.49999999981573573  0.16079609174514242  1.0000
  C   C19       1.0  0.43230013913697607  0.9999999996314715  0.8392039085681008  1.0000
  C   C20       1.0  0.9323001392621159  0.49999999981573573  0.8392039084226011  1.0000
  C   C21       1.0  0.4112612458871417  0.9999999996314715  0.9829231339856034  1.0000
  C   C22       1.0  0.9112612460122814  0.49999999981573573  0.9829231338401034  1.0000
  C   C23       1.0  0.5887387538732265  0.9999999996314715  0.017076866183385473  1.0000
  C   C24       1.0  0.0887387537480867  0.49999999981573573  0.017076866328885262  1.0000
  C   C25       1.0  0.6093676444000693  0.9999999996314715  0.4578974928415551  1.0000
  C   C26       1.0  0.10936764427492945  0.49999999981573573  0.4578974929870549  1.0000
  C   C27       1.0  0.39063235597448615  0.9999999996314715  0.5421025073261884  1.0000
  C   C28       1.0  0.8906323560996259  0.49999999981573573  0.5421025071806885  1.0000
  C   C29       1.0  0.7248782130145242  0.9999999996314715  0.3320062688802839  1.0000
  C   C30       1.0  0.22487821288938434  0.49999999981573573  0.3320062690257837  1.0000
  C   C31       1.0  0.27512178711403296  0.9999999996314715  0.6679937300632918  1.0000
  C   C32       1.0  0.7751217868709837  0.49999999981573573  0.667993731143205  1.0000
  N   N1        1.0  0.6318909049694047  0.9999999996314715  0.31229701486028527  1.0000
  N   N2        1.0  0.1318909048442649  0.49999999981573573  0.312297015005785  1.0000
  N   N3        1.0  0.36810909540515074  0.9999999996314715  0.6877029853074582  1.0000
  N   N4        1.0  0.8681090949161032  0.49999999981573573  0.6877029851632038  1.0000
  O   O1        1.0  0.11921450788869563  0.9999999996314715  0.3134027373015486  1.0000
  O   O2        1.0  0.6192145080138354  0.49999999981573573  0.31340273715604877  1.0000
  O   O3        1.0  0.8807854918716725  0.9999999996314715  0.6865972628674402  1.0000
  O   O4        1.0  0.38078549236072  0.49999999981573573  0.6865972630116948  1.0000
  Cl  Cl1       1.0  0.9356935372605586  0.9999999996314715  0.2939848211428076  1.0000
  Cl  Cl2       1.0  0.4356935377496061  0.49999999981573573  0.29398482128706216  1.0000
  Cl  Cl3       1.0  0.06430646249980956  0.9999999996314715  0.7060151790261813  1.0000
  Cl  Cl4       1.0  0.5643064626249493  0.49999999981573573  0.7060151788806813  1.0000
  Cl  Cl5       1.0  0.7967351898579429  0.9999999996314715  0.9293338473593915  1.0000
  Cl  Cl6       1.0  0.2967351897328032  0.49999999981573573  0.9293338475048912  1.0000
  Cl  Cl7       1.0  0.2032648099024252  0.9999999996314715  0.07066615280959732  1.0000
  Cl  Cl8       1.0  0.7032648100275648  0.49999999981573573  0.07066615266409751  1.0000
