data_image0
_chemical_formula_structural       H64C40N8O16S8
_chemical_formula_sum              "H64 C40 N8 O16 S8"
_cell_length_a       6.256144351359976
_cell_length_b       19.069776853634206
_cell_length_c       12.360140646733111
_cell_angle_alpha    90.0
_cell_angle_beta     119.71456522816588
_cell_angle_gamma    90.0

_space_group_name_H-M_alt    "P 1"
_space_group_IT_number       1

loop_
  _space_group_symop_operation_xyz
  'x, y, z'

loop_
  _atom_site_type_symbol
  _atom_site_label
  _atom_site_symmetry_multiplicity
  _atom_site_fract_x
  _atom_site_fract_y
  _atom_site_fract_z
  _atom_site_occupancy
  H   H1        1.0  0.7773570362114335  0.3647440456899969  0.46648031134047613  1.0000
  H   H2        1.0  0.2226429646176094  0.8647440458569049  0.03351968952231289  1.0000
  H   H3        1.0  0.22264296315229454  0.635255954119429  0.533519688676207  1.0000
  H   H4        1.0  0.7773570365865536  0.13525595447691105  0.9664803109554098  1.0000
  H   H5        1.0  0.7301481543566634  0.3178927334351431  0.5786035573458405  1.0000
  H   H6        1.0  0.2698518453821848  0.8178927336020511  0.9213964422857762  1.0000
  H   H7        1.0  0.26985184684749963  0.6821072663742829  0.4213964431318822  1.0000
  H   H8        1.0  0.7301481539815433  0.1821072667317649  0.07860355773090684  1.0000
  H   H9        1.0  0.6179108230136688  0.2832654724520573  0.42581500571858844  1.0000
  H   H10       1.0  0.382089175973328  0.7832654726189653  0.0741849938737048  1.0000
  H   H11       1.0  0.3820891763484482  0.7167345273573686  0.5741849934886384  1.0000
  H   H12       1.0  0.6179108233904  0.21673452771485063  0.9258150061429782  1.0000
  H   H13       1.0  0.38103635514596096  0.30198857302845217  0.6173757269189168  1.0000
  H   H14       1.0  0.6189636445928872  0.8019885731953601  0.8826242727126998  1.0000
  H   H15       1.0  0.6189636442177672  0.6980114267809737  0.3826242730977663  1.0000
  H   H16       1.0  0.3810363547708408  0.1980114271384558  0.11737572730398323  1.0000
  H   H17       1.0  0.25620941534108443  0.3240945039596609  0.714915340302724  1.0000
  H   H18       1.0  0.7437905843977638  0.8240945041265688  0.7850846593288928  1.0000
  H   H19       1.0  0.7437905840210327  0.6759054958497651  0.28508465890450296  1.0000
  H   H20       1.0  0.25620941680639925  0.1759054962072471  0.2149153411488299  1.0000
  H   H21       1.0  0.17887061405163393  0.37433482178579297  0.5769229448144685  1.0000
  H   H22       1.0  0.8211293875292603  0.874334821952701  0.9230770560876439  1.0000
  H   H23       1.0  0.8211293871525293  0.625665178023633  0.4230770556632541  1.0000
  H   H24       1.0  0.17887061367490287  0.125665178381115  0.07692294439007878  1.0000
  H   H25       1.0  0.6293277404230171  0.18999689549642068  0.5049851296535414  1.0000
  H   H26       1.0  0.37067225931583114  0.6899968956633287  0.9950148699780752  1.0000
  H   H27       1.0  0.370672260781146  0.8100031043130053  0.4950148708241812  1.0000
  H   H28       1.0  0.6293277400478968  0.31000310467048725  0.00498513003860778  1.0000
  H   H29       1.0  0.3045288102460256  0.9049329906926147  0.7662926439268773  1.0000
  H   H30       1.0  0.6954711894928226  0.40493299105009667  0.7337073557047391  1.0000
  H   H31       1.0  0.6954711891160916  0.09506700911681129  0.23370735528034944  1.0000
  H   H32       1.0  0.3045288098709054  0.5950670092837193  0.2662926443119439  1.0000
  H   H33       1.0  0.33101351406501806  0.9501682342206796  0.6473527880080309  1.0000
  H   H34       1.0  0.6689864856738301  0.4501682345781617  0.8526472116235858  1.0000
  H   H35       1.0  0.66898648529871  0.049831765588746316  0.3526472120086522  1.0000
  H   H36       1.0  0.3310135155303329  0.5498317657556543  0.1473527888541368  1.0000
  H   H37       1.0  0.47250715613065236  0.9851588130366471  0.8024112848077737  1.0000
  H   H38       1.0  0.5274928436098067  0.48515881286973916  0.6975887156332992  1.0000
  H   H39       1.0  0.5274928432330757  0.014841187297168821  0.19758871520890942  1.0000
  H   H40       1.0  0.4725071557539213  0.5148411869396868  0.3024112843833839  1.0000
  H   H41       1.0  0.806644752704505  0.94391165340614  0.5379819524525898  1.0000
  H   H42       1.0  0.1933552470343433  0.44391165323923204  0.9620180471790268  1.0000
  H   H43       1.0  0.19335524665922313  0.056088346927675954  0.46201804756409326  1.0000
  H   H44       1.0  0.8066447523293848  0.5560883465701939  0.03798195283765619  1.0000
  H   H45       1.0  0.9078637326856698  0.8983704608339523  0.6803107398203153  1.0000
  H   H46       1.0  0.0921362670531784  0.39837046066704446  0.8196892598113014  1.0000
  H   H47       1.0  0.09213626667644732  0.10162953949986349  0.31968925938691156  1.0000
  H   H48       1.0  0.9078637323105497  0.6016295396667715  0.18031074020538176  1.0000
  H   H49       1.0  0.715183309240463  0.9732862645670066  0.6474319713821148  1.0000
  H   H50       1.0  0.2848166904999961  0.4732862644000987  0.852568029058958  1.0000
  H   H51       1.0  0.284816690123265  0.026713735766809292  0.3525680286345682  1.0000
  H   H52       1.0  0.7151833088637322  0.5267137354093273  0.14743197095772514  1.0000
  H   H53       1.0  0.665352638395492  0.06940702873236614  0.5699039778644805  1.0000
  H   H54       1.0  0.3346473631837912  0.5694070288992742  0.9300960222281757  1.0000
  H   H55       1.0  0.3346473628070601  0.9305929710770598  0.4300960218037859  1.0000
  H   H56       1.0  0.6653526380203719  0.4305929709101518  0.069903978249547  1.0000
  H   H57       1.0  0.45783048826352735  0.0816148102804567  0.7363994379483475  1.0000
  H   H58       1.0  0.5421695114753209  0.5816148104473646  0.7636005616832692  1.0000
  H   H59       1.0  0.5421695111002007  0.9183851895289692  0.2636005620683356  1.0000
  H   H60       1.0  0.4578304878884072  0.41838518988645124  0.23639943833341384  1.0000
  H   H61       1.0  0.4229263606621177  0.20266990168075597  0.673852479891473  1.0000
  H   H62       1.0  0.5770736390783415  0.7026699018476639  0.8261475205495996  1.0000
  H   H63       1.0  0.5770736405420455  0.7973300986530599  0.3261475205862496  1.0000
  H   H64       1.0  0.42292636028538655  0.29733009848615205  0.17385247946708327  1.0000
  C   C1        1.0  0.022984403771796454  0.20668173205439877  0.5828223516135199  1.0000
  C   C2        1.0  0.9770155959686628  0.7066817316969167  0.9171776488275529  1.0000
  C   C3        1.0  0.9770155974323667  0.7933182682794172  0.41717764886420267  1.0000
  C   C4        1.0  0.022984403395065366  0.2933182681125092  0.08282235118913019  1.0000
  C   C5        1.0  0.7678310382027087  0.31271788525745225  0.5010662776067172  1.0000
  C   C6        1.0  0.23216896153613945  0.8127178848999702  0.9989337220248996  1.0000
  C   C7        1.0  0.23216896116101932  0.6872821150763637  0.49893372240996586  1.0000
  C   C8        1.0  0.7678310378275887  0.1872821149094557  0.0010662779917836075  1.0000
  C   C9        1.0  0.21823953904058296  0.32205983515898184  0.6181329559340568  1.0000
  C   C10       1.0  0.7817604606982652  0.8220598353258898  0.8818670436975599  1.0000
  C   C11       1.0  0.7817604603231452  0.677940164650444  0.3818670440826262  1.0000
  C   C12       1.0  0.21823953866385182  0.1779401650079261  0.11813295550966711  1.0000
  C   C13       1.0  0.8120301794225699  0.1669324069407416  0.5540641628964579  1.0000
  C   C14       1.0  0.18796982215832422  0.6669324071076496  0.9459358380056545  1.0000
  C   C15       1.0  0.18796982178159313  0.8330675928686844  0.4459358375812648  1.0000
  C   C16       1.0  0.812030179045839  0.33306759322616636  0.05406416247206808  1.0000
  C   C17       1.0  0.3127602304091446  0.9568896725984744  0.730872506236426  1.0000
  C   C18       1.0  0.6872397711701387  0.4568896729559564  0.7691274938562302  1.0000
  C   C19       1.0  0.6872397707934075  0.04311032721095151  0.2691274934318405  1.0000
  C   C20       1.0  0.3127602300340245  0.5431103273778595  0.23087250662149236  1.0000
  C   C21       1.0  0.8648289751755858  0.9503500355090014  0.6372466469161562  1.0000
  C   C22       1.0  0.13517102456326247  0.4503500358664834  0.8627533527154604  1.0000
  C   C23       1.0  0.1351710241881423  0.04964996430042451  0.36275335310052687  1.0000
  C   C24       1.0  0.8648289748004656  0.5496499644673325  0.13724664730122263  1.0000
  C   C25       1.0  0.8329661000916292  0.09736918498058568  0.5913827784725816  1.0000
  C   C26       1.0  0.16703389964882984  0.5973691846231036  0.9086172219684912  1.0000
  C   C27       1.0  0.16703389927209875  0.9026308153532303  0.40861722154410146  1.0000
  C   C28       1.0  0.8329661015553331  0.40263081518632227  0.0913827785092314  1.0000
  C   C29       1.0  0.06369406914134655  0.06430592446949893  0.656157171665738  1.0000
  C   C30       1.0  0.9363059305975016  0.5643059241120169  0.8438428279658787  1.0000
  C   C31       1.0  0.9363059302223814  0.9356940758643171  0.34384282835094515  1.0000
  C   C32       1.0  0.06369406876461546  0.4356940756974091  0.15615717124134815  1.0000
  C   C33       1.0  0.2744159403633432  0.10414299103985178  0.684672040443285  1.0000
  C   C34       1.0  0.7255840593771159  0.6041429912067597  0.8153279599977877  1.0000
  C   C35       1.0  0.7255840608408198  0.8958570092939642  0.3153279600344375  1.0000
  C   C36       1.0  0.2744159399866121  0.3958570091270562  0.18467204001889528  1.0000
  C   C37       1.0  0.2543802388161884  0.1738834872295882  0.6482739127317501  1.0000
  C   C38       1.0  0.7456197627630947  0.6738834868721062  0.8517260873609062  1.0000
  C   C39       1.0  0.7456197623879747  0.8261165131042277  0.3517260877459725  1.0000
  C   C40       1.0  0.25438023843945734  0.32611651293731975  0.14827391230736028  1.0000
  N   N1        1.0  0.004192004172111069  0.27710580100432275  0.5426168302809675  1.0000
  N   N2        1.0  0.9958079955667372  0.7771058011712307  0.9573831693506492  1.0000
  N   N3        1.0  0.9958079951916169  0.7228941993294932  0.4573831697357155  1.0000
  N   N4        1.0  0.004192003796990917  0.2228941991625852  0.04261683066603389  1.0000
  N   N5        1.0  0.08473298650484677  0.9946374493829111  0.6995791527448788  1.0000
  N   N6        1.0  0.9152670132356124  0.4946374492160031  0.8004208476961938  1.0000
  N   N7        1.0  0.9152670128588813  0.005362550950904881  0.3004208472718041  1.0000
  N   N8        1.0  0.08473298612811568  0.5053625505934228  0.1995791523204892  1.0000
  O   O1        1.0  0.7882931540772412  0.224722140845781  0.28548019641805367  1.0000
  O   O2        1.0  0.21170684490975578  0.724722140488299  0.21451980317423963  1.0000
  O   O3        1.0  0.21170684528648687  0.775277859488035  0.7145198035986294  1.0000
  O   O4        1.0  0.7882931544523614  0.27527785932112697  0.7854801960329872  1.0000
  O   O5        1.0  0.24159084478639112  0.22554653643890527  0.40354308512870035  1.0000
  O   O6        1.0  0.7584091542006058  0.7255465360814233  0.09645691446359295  1.0000
  O   O7        1.0  0.758409154577337  0.7744534638949107  0.5964569148879828  1.0000
  O   O8        1.0  0.24159084516151125  0.27445346372800267  0.903543084743634  1.0000
  O   O9        1.0  0.31322445536626514  0.06806033127506968  0.9400278789027331  1.0000
  O   O10       1.0  0.6867755443725831  0.5680603314419777  0.5599721207288836  1.0000
  O   O11       1.0  0.686775543997463  0.9319396685343563  0.059972121113949964  1.0000
  O   O12       1.0  0.31322445499114493  0.4319396683674483  0.4400278792877995  1.0000
  O   O13       1.0  0.8769331043984271  0.03555029485679603  0.858476651605365  1.0000
  O   O14       1.0  0.12306689718085617  0.535550295023704  0.6415233484872912  1.0000
  O   O15       1.0  0.12306689680573603  0.9644497049526299  0.14152334887235762  1.0000
  O   O16       1.0  0.8769331040216961  0.4644497053101119  0.35847665118097527  1.0000
  S   S1        1.0  0.01361512230673281  0.2667204907031035  0.35532662363339274  1.0000
  S   S2        1.0  0.9863848766802642  0.7667204903456214  0.14467337595890056  1.0000
  S   S3        1.0  0.9863848770569953  0.7332795096307124  0.6446733763832903  1.0000
  S   S4        1.0  0.0136151226834639  0.23327950946380446  0.8553266240577826  1.0000
  S   S5        1.0  0.12988838085807095  0.011808010745395128  0.8987708691767726  1.0000
  S   S6        1.0  0.8701116188807774  0.5118080109123031  0.6012291304548439  1.0000
  S   S7        1.0  0.8701116185056571  0.9881919890640307  0.10122913083991039  1.0000
  S   S8        1.0  0.12988838232177488  0.48819198889712284  0.3987708692134224  1.0000
