data_image0
_chemical_formula_structural       H40C52N12O24Br4
_chemical_formula_sum              "H40 C52 N12 O24 Br4"
_cell_length_a       7.331018653808228
_cell_length_b       13.727452211897145
_cell_length_c       15.5545723142813
_cell_angle_alpha    65.68128207752191
_cell_angle_beta     83.01422462910146
_cell_angle_gamma    83.69907800911024

_space_group_name_H-M_alt    "P 1"
_space_group_IT_number       1

loop_
  _space_group_symop_operation_xyz
  'x, y, z'

loop_
  _atom_site_type_symbol
  _atom_site_label
  _atom_site_symmetry_multiplicity
  _atom_site_fract_x
  _atom_site_fract_y
  _atom_site_fract_z
  _atom_site_occupancy
  H   H1        1.0  0.6110661002084713  0.20652828834615758  0.025543928140844725  1.0000
  H   H2        1.0  0.3889338998055038  0.793471711578737  0.9744560721984781  1.0000
  H   H3        1.0  0.4458383720859858  0.1686412619022845  0.11973020201310025  1.0000
  H   H4        1.0  0.5541616280450862  0.8313587383475562  0.8802697976182017  1.0000
  H   H5        1.0  0.5072431236207533  0.03390438309319817  0.2756787523661977  1.0000
  H   H6        1.0  0.49275687639322174  0.966095616831696  0.7243212479731251  1.0000
  H   H7        1.0  0.7401074830918183  0.922669952821521  0.3831358766746198  1.0000
  H   H8        1.0  0.2598925170392538  0.07733004742831988  0.616864122956682  1.0000
  H   H9        1.0  0.16406311821701008  0.021781968026620385  0.15199987699084838  1.0000
  H   H10       1.0  0.8359368819533258  0.978218031165994  0.8480001233471457  1.0000
  H   H11       1.0  0.9322970161343417  0.1368266333635152  0.04425087460335817  1.0000
  H   H12       1.0  0.06770298263338576  0.8631733668836366  0.9557491250273314  1.0000
  H   H13       1.0  0.822438929752621  0.35116352972201703  0.48161445998420926  1.0000
  H   H14       1.0  0.17756107026135404  0.6488364702028774  0.5183855403551135  1.0000
  H   H15       1.0  0.05267735547959613  0.33126124003285445  0.44685859856732923  1.0000
  H   H16       1.0  0.947322644534379  0.66873875989204  0.5531414017719936  1.0000
  H   H17       1.0  0.17590894175993593  0.4167670461195782  0.2816740165913464  1.0000
  H   H18       1.0  0.8240910568906946  0.5832329538026273  0.7183259837473641  1.0000
  H   H19       1.0  0.11609924722534742  0.5352058414174039  0.11700630700558921  1.0000
  H   H20       1.0  0.8839007529057247  0.4647941588324369  0.8829936926257128  1.0000
  H   H21       1.0  0.5448330349650712  0.5821507890871315  0.20519010938876117  1.0000
  H   H22       1.0  0.45516696504890397  0.4178492108377629  0.7948098909505616  1.0000
  H   H23       1.0  0.6014596194382066  0.46107366668897426  0.3696405088709892  1.0000
  H   H24       1.0  0.3985403805757687  0.5389263332359202  0.6303594914683336  1.0000
  H   H25       1.0  0.4077999636526556  0.31037429573361097  0.2829399343668984  1.0000
  H   H26       1.0  0.5922000364784165  0.6896257045162296  0.7170600652644036  1.0000
  H   H27       1.0  0.8617547572944525  0.11449130208605637  0.4353113743731965  1.0000
  H   H28       1.0  0.1382452427195226  0.885508697838838  0.5646886259661262  1.0000
  H   H29       1.0  0.9427143952586264  0.30556495858082233  0.13460057941302417  1.0000
  H   H30       1.0  0.057285604755348635  0.694435041344072  0.8653994209262986  1.0000
  H   H31       1.0  0.6374185025908925  0.47093922434676405  0.9747680760641623  1.0000
  H   H32       1.0  0.3625814974230826  0.5290607755781301  0.025231924275160557  1.0000
  H   H33       1.0  0.5268875691816036  0.2030305388513808  0.7185672851102219  1.0000
  H   H34       1.0  0.4731124309494684  0.7969694613984598  0.28143271452108  1.0000
  H   H35       1.0  0.03396219880847827  0.39215431286699587  0.603179872825102  1.0000
  H   H36       1.0  0.9660378013225938  0.607845687382845  0.39682012680620005  1.0000
  H   H37       1.0  0.01830034041245723  0.17092597537690993  0.896287675676804  1.0000
  H   H38       1.0  0.9816996597186148  0.8290740248729308  0.10371232395449795  1.0000
  H   H39       1.0  0.35379871558564974  0.002267828875666571  0.030769023248756203  1.0000
  H   H40       1.0  0.6462012845846861  0.9977321703169477  0.9692309770892379  1.0000
  C   C1        1.0  0.7014609532894881  0.09301639571028618  0.1512337054568838  1.0000
  C   C2        1.0  0.29853904672448683  0.906983604214608  0.8487662948824389  1.0000
  C   C3        1.0  0.6508081902182614  0.031630419661939774  0.2479181433486244  1.0000
  C   C4        1.0  0.3491918097957137  0.9683695802629545  0.7520818569906985  1.0000
  C   C5        1.0  0.7820411681637865  0.9685557993026086  0.3087311299122126  1.0000
  C   C6        1.0  0.21795883185018858  0.03144420062228596  0.6912688704271102  1.0000
  C   C7        1.0  0.9658245499993033  0.9644037844832917  0.27337675573629594  1.0000
  C   C8        1.0  0.03417545013176865  0.03559621576654887  0.7266232438950061  1.0000
  C   C9        1.0  0.020144533538722482  0.024308720309067104  0.178348003109009  1.0000
  C   C10       1.0  0.9798554664752526  0.9756912796158272  0.8216519972303138  1.0000
  C   C11       1.0  0.8890833076719952  0.08896884429361042  0.11812532150479962  1.0000
  C   C12       1.0  0.11091669261543759  0.9110311552239503  0.8818746781251737  1.0000
  C   C13       1.0  0.8926423493697525  0.42827662535010497  0.33818967381956555  1.0000
  C   C14       1.0  0.1073576495543357  0.5717233741647669  0.6618103258097953  1.0000
  C   C15       1.0  0.03667099430176416  0.4510108563809568  0.26510934101914146  1.0000
  C   C16       1.0  0.9633290057122108  0.5489891435439376  0.7348906593201813  1.0000
  C   C17       1.0  0.004017518951614022  0.5182977915793555  0.1723240193043707  1.0000
  C   C18       1.0  0.9959824810623609  0.4817022083455389  0.8276759810349521  1.0000
  C   C19       1.0  0.8271980714771071  0.564869821929377  0.15098951579824704  1.0000
  C   C20       1.0  0.172801928536868  0.43513017799551745  0.8490104845410757  1.0000
  C   C21       1.0  0.6823369862679626  0.5449047431473597  0.22164742944985355  1.0000
  C   C22       1.0  0.3176630138631094  0.45509525710248105  0.7783525701814484  1.0000
  C   C23       1.0  0.7148606041592108  0.4767519039658233  0.31441042100585864  1.0000
  C   C24       1.0  0.2851393958547642  0.5232480959590712  0.6855895793334641  1.0000
  C   C25       1.0  0.5890069851132262  0.3947245391610414  0.1109949120168732  1.0000
  C   C26       1.0  0.41099301501784574  0.6052754610887993  0.8890050876144289  1.0000
  C   C27       1.0  0.6658988418820436  0.31524557759029026  0.19874629373910155  1.0000
  C   C28       1.0  0.33410115813193153  0.6847544223346042  0.8012537066002211  1.0000
  C   C29       1.0  0.5514578715493846  0.28114878217083744  0.2828739067289131  1.0000
  C   C30       1.0  0.4485421284645906  0.7188512177540567  0.7171260936104097  1.0000
  C   C31       1.0  0.622974276739919  0.20797139775039447  0.3658991368659752  1.0000
  C   C32       1.0  0.3770257233911529  0.7920286024994463  0.6341008627653268  1.0000
  C   C33       1.0  0.8074012163700457  0.17031313221516695  0.36947133538267  1.0000
  C   C34       1.0  0.1925987837610262  0.8296868680346737  0.630528664248632  1.0000
  C   C35       1.0  0.9188373172702486  0.20796681126514077  0.28475552168280854  1.0000
  C   C36       1.0  0.08116268286082326  0.7920331889847  0.7152444779484934  1.0000
  C   C37       1.0  0.851338552474398  0.2780174976148773  0.19915620937443448  1.0000
  C   C38       1.0  0.14866144753957702  0.721982502310017  0.8008437909648883  1.0000
  C   C39       1.0  0.38184896404284585  0.1003269679610844  0.8975501076514071  1.0000
  C   C40       1.0  0.6181510359711291  0.8996730319638101  0.10244989268791573  1.0000
  C   C41       1.0  0.28335567664093847  0.1788951552603279  0.8165538509429987  1.0000
  C   C42       1.0  0.7166443234901335  0.8211048449895127  0.18344614868830325  1.0000
  C   C43       1.0  0.381164854388419  0.22527787137000566  0.7280663189221688  1.0000
  C   C44       1.0  0.618835145742653  0.774722128879835  0.27193368070913326  1.0000
  C   C45       1.0  0.28907812087540946  0.30039976295543347  0.6527916574567134  1.0000
  C   C46       1.0  0.7109218794120232  0.6996002365621274  0.3472083421732598  1.0000
  C   C47       1.0  0.10306260274731224  0.3319292817419327  0.6622365389226426  1.0000
  C   C48       1.0  0.8969373973837599  0.6680707185079081  0.33776346070865937  1.0000
  C   C49       1.0  0.010013730290914815  0.28348219880798536  0.7511171456614881  1.0000
  C   C50       1.0  0.9899862697230601  0.7165178011169091  0.24888285467783464  1.0000
  C   C51       1.0  0.09593982562020048  0.20704269376128584  0.8281412580403922  1.0000
  C   C52       1.0  0.9040601743937745  0.7929573061636086  0.17185874229893064  1.0000
  N   N1        1.0  0.5704771207295108  0.15200481728089227  0.0907633468573791  1.0000
  N   N2        1.0  0.4295228779211197  0.8479951826413132  0.9092366534813313  1.0000
  N   N3        1.0  0.9229664982824123  0.35888569768312933  0.42886119207235385  1.0000
  N   N4        1.0  0.0770335018486598  0.6411143025667115  0.571138807558948  1.0000
  N   N5        1.0  0.5004920684830061  0.1705957340627266  0.45329266335309876  1.0000
  N   N6        1.0  0.49950793153096895  0.8294042658621676  0.5467073369862241  1.0000
  N   N7        1.0  0.11518007725163854  0.17317508352539857  0.28590240551260965  1.0000
  N   N8        1.0  0.8848199228794336  0.8268249167244424  0.7140975941186922  1.0000
  N   N9        1.0  0.392782751394464  0.3518926618945563  0.5609000501331662  1.0000
  N   N10       1.0  0.607217248619511  0.6481073380303379  0.4390999502061566  1.0000
  N   N11       1.0  0.8144965097874907  0.3155917249570232  0.7643878856203106  1.0000
  N   N12       1.0  0.18550349022648455  0.684408274967871  0.2356121147190122  1.0000
  O   O1        1.0  0.6956099516214026  0.4101017256491011  0.03260520822629373  1.0000
  O   O2        1.0  0.3043900485096693  0.5898982746007396  0.9673947914050083  1.0000
  O   O3        1.0  0.43481411275664017  0.442433625506281  0.114111711263334  1.0000
  O   O4        1.0  0.5651858872573351  0.5575663744186133  0.8858882890759887  1.0000
  O   O5        1.0  0.34804274734691293  0.22038635329729525  0.4536413324170626  1.0000
  O   O6        1.0  0.6519572526670622  0.779613646627599  0.5463586679222602  1.0000
  O   O7        1.0  0.55654948854724  0.09208303206523023  0.5219227332216059  1.0000
  O   O8        1.0  0.44345051158383203  0.9079169681846105  0.47807726640969606  1.0000
  O   O9        1.0  0.1748984697667425  0.11278151871370364  0.36251395503019307  1.0000
  O   O10       1.0  0.8251015303643295  0.8872184815361372  0.6374860446011089  1.0000
  O   O11       1.0  0.21236524694270376  0.20799030646681457  0.2090772097889656  1.0000
  O   O12       1.0  0.787634753344729  0.7920096930507462  0.7909227898410075  1.0000
  O   O13       1.0  0.27745232245060464  0.058182435088828435  0.9769435081007943  1.0000
  O   O14       1.0  0.7225476776804673  0.9418175651610123  0.023056491530507664  1.0000
  O   O15       1.0  0.5510028552926184  0.07903047594015436  0.8878102929824824  1.0000
  O   O16       1.0  0.44899714483845354  0.9209695243096864  0.1121897066488196  1.0000
  O   O17       1.0  0.5542302558258473  0.31673869259990906  0.5516828125644824  1.0000
  O   O18       1.0  0.4457697441881279  0.6832613073249852  0.4483171877748405  1.0000
  O   O19       1.0  0.31460832949673634  0.42740776970647765  0.4976405851296688  1.0000
  O   O20       1.0  0.6853916706343357  0.572592230543363  0.5023594145016331  1.0000
  O   O21       1.0  0.7357970579369719  0.37445726749511715  0.692909789996869  1.0000
  O   O22       1.0  0.26420294207700334  0.6255427324297772  0.30709021034245376  1.0000
  O   O23       1.0  0.7400448751512013  0.2827322169212222  0.8465095344549731  1.0000
  O   O24       1.0  0.25995512497987067  0.7172677833286186  0.15349046517632878  1.0000
  Br  Br1       1.0  0.14528581017245448  0.876150496756129  0.3558636467762314  1.0000
  Br  Br2       1.0  0.854714188478176  0.1238495031660764  0.644136353562479  1.0000
  Br  Br3       1.0  0.7877573525067478  0.660620340144858  0.023577846693744117  1.0000
  Br  Br4       1.0  0.2122426475072273  0.33937965978003626  0.9764221536455787  1.0000
