data_image0
_chemical_formula_structural       H60C52O16F24S4I4
_chemical_formula_sum              "H60 C52 O16 F24 S4 I4"
_cell_length_a       14.755124299068944
_cell_length_b       5.56724086729076
_cell_length_c       21.75057135056375
_cell_angle_alpha    90.0
_cell_angle_beta     107.53809179515403
_cell_angle_gamma    90.0

_space_group_name_H-M_alt    "P 1"
_space_group_IT_number       1

loop_
  _space_group_symop_operation_xyz
  'x, y, z'

loop_
  _atom_site_type_symbol
  _atom_site_label
  _atom_site_symmetry_multiplicity
  _atom_site_fract_x
  _atom_site_fract_y
  _atom_site_fract_z
  _atom_site_occupancy
  H   H1        1.0  0.6965415229304172  0.16503070046744858  0.6239560274349532  1.0000
  H   H2        1.0  0.8034584772188292  0.6650307016088793  0.876043972899516  1.0000
  H   H3        1.0  0.303458477025076  0.8349692982229692  0.3760439724665803  1.0000
  H   H4        1.0  0.19654152295267052  0.3349692988777603  0.12395602748418637  1.0000
  H   H5        1.0  0.7001630693781016  0.9156907167339476  0.529190230128996  1.0000
  H   H6        1.0  0.799836930555138  0.41569071559251686  0.970809769723304  1.0000
  H   H7        1.0  0.2998369305773914  0.08430928375269205  0.4708097697725373  1.0000
  H   H8        1.0  0.2001630694003551  0.5843092830979009  0.029190230178229366  1.0000
  H   H9        1.0  0.8215977157197377  0.9934833235788457  0.47325433995136906  1.0000
  H   H10       1.0  0.6784022843704748  0.4934833242336369  0.026745660123799673  1.0000
  H   H11       1.0  0.17840228423575535  0.006516676907793868  0.5267456599501643  1.0000
  H   H12       1.0  0.3215977155850182  0.5065166762530027  0.9732543397777337  1.0000
  H   H13       1.0  0.941414766922029  0.31464450914846936  0.512877362117785  1.0000
  H   H14       1.0  0.5585852330112108  0.8146445102899001  0.9871226377345151  1.0000
  H   H15       1.0  0.05858523303346415  0.6853554895419484  0.4871226377837483  1.0000
  H   H16       1.0  0.4414147669442824  0.18535549019673953  0.01287736216701835  1.0000
  H   H17       1.0  0.0324305275910006  0.45904947727610634  0.7523041712679417  1.0000
  H   H18       1.0  0.4675694724457797  0.9590494766213152  0.7476958289421254  1.0000
  H   H19       1.0  0.9675694725804993  0.5409505232105333  0.24769582911576085  1.0000
  H   H20       1.0  0.5324305275097133  0.04095052386532448  0.25230417095940794  1.0000
  H   H21       1.0  0.12377594644232713  0.2549446546024344  0.751397997647419  1.0000
  H   H22       1.0  0.37622405359445316  0.7549446539476432  0.748602002562648  1.0000
  H   H23       1.0  0.8762240535131659  0.7450553458842053  0.24860200225411425  1.0000
  H   H24       1.0  0.6237759465770467  0.2450553465389964  0.2513979978210545  1.0000
  H   H25       1.0  0.0064267205216498955  0.19870858228886892  0.702161887041876  1.0000
  H   H26       1.0  0.49357327929912376  0.6987085816340778  0.797838112686022  1.0000
  H   H27       1.0  0.9935732794338432  0.8012914181977707  0.29783811285965733  1.0000
  H   H28       1.0  0.5064267206563694  0.30129141885256183  0.20216188721551143  1.0000
  H   H29       1.0  0.06846791943741175  0.1652443646555725  0.6049401077232072  1.0000
  H   H30       1.0  0.4315320803833618  0.6652443640007814  0.8950598920046908  1.0000
  H   H31       1.0  0.9315320805180815  0.8347556358310673  0.3950598921783262  1.0000
  H   H32       1.0  0.5684679195721313  0.3347556364858583  0.10494010789684256  1.0000
  H   H33       1.0  0.18629247353680659  0.2380074477799304  0.6515810936107899  1.0000
  H   H34       1.0  0.31370752696111864  0.7380074489213612  0.8484189061158101  1.0000
  H   H35       1.0  0.8137075264186866  0.7619925509104873  0.3484189062907435  1.0000
  H   H36       1.0  0.6862924729943745  0.26199255156527845  0.1515810937857232  1.0000
  H   H37       1.0  0.12903514009521835  0.4130208382952492  0.5825721103436583  1.0000
  H   H38       1.0  0.3709648597255553  0.913020837640458  0.9174278893842398  1.0000
  H   H39       1.0  0.8709648598602748  0.5869791621913905  0.41742788955787513  1.0000
  H   H40       1.0  0.6290351402299378  0.08697916284618155  0.08257211051729367  1.0000
  H   H41       1.0  0.17181845108738422  0.7815766056692062  0.6565932214491493  1.0000
  H   H42       1.0  0.32818154873338945  0.28157660452777544  0.8434067782787487  1.0000
  H   H43       1.0  0.8281815488681089  0.2184233948174334  0.343406778452384  1.0000
  H   H44       1.0  0.6718184512221038  0.7184233941626423  0.15659322162278477  1.0000
  H   H45       1.0  0.2203928415739624  0.5972704216079928  0.7253488962964038  1.0000
  H   H46       1.0  0.27960715824681115  0.09727042046656208  0.7746511034314942  1.0000
  H   H47       1.0  0.7796071583815306  0.4027295788786468  0.2746511036051296  1.0000
  H   H48       1.0  0.7203928417086818  0.9027295782238556  0.22534889647003914  1.0000
  H   H49       1.0  0.1283819333261398  0.8049147911541157  0.7250226177990486  1.0000
  H   H50       1.0  0.37161806649463375  0.30491479180890685  0.7749773819288492  1.0000
  H   H51       1.0  0.8716180666293534  0.19508520933252393  0.27497738210248474  1.0000
  H   H52       1.0  0.6283819334608592  0.6950852086777328  0.225022617972684  1.0000
  H   H53       1.0  0.6024617345315902  0.5340085638232422  0.6928887256197029  1.0000
  H   H54       1.0  0.8975382656176562  0.034008564478033326  0.8071112747147661  1.0000
  H   H55       1.0  0.3975382654239028  0.46599143666339743  0.30711127428183027  1.0000
  H   H56       1.0  0.1024617345538437  0.9659914360086064  0.19288872566893636  1.0000
  H   H57       1.0  0.5135876892006692  0.3805667098846123  0.6009185459829178  1.0000
  H   H58       1.0  0.9864123109485772  0.880566711026043  0.8990814543515513  1.0000
  H   H59       1.0  0.48641231075482394  0.6194332888058054  0.3990814539186155  1.0000
  H   H60       1.0  0.013587689222922614  0.11943328946059657  0.10091854603215114  1.0000
  C   C1        1.0  0.8167379991589057  0.3768148819149048  0.6214045661503097  1.0000
  C   C2        1.0  0.683262000774334  0.8768148830563356  0.8785954337019902  1.0000
  C   C3        1.0  0.1832620007965875  0.6231851167755129  0.3785954337512236  1.0000
  C   C4        1.0  0.316737999181159  0.12318511743030404  0.12140456619954304  1.0000
  C   C5        1.0  0.7499526932908375  0.1958300720210352  0.5994212139155922  1.0000
  C   C6        1.0  0.750047306642402  0.6958300713662441  0.9005787859367076  1.0000
  C   C7        1.0  0.2500473066646555  0.8041699284656044  0.40057878598594104  1.0000
  C   C8        1.0  0.249952693313091  0.3041699273241737  0.09942121396482563  1.0000
  C   C9        1.0  0.7524522855291288  0.05739748065822479  0.5462877976316726  1.0000
  C   C10       1.0  0.7475477146201175  0.5573974800034337  0.9537122027027966  1.0000
  C   C11       1.0  0.24754771464237105  0.9426025198284149  0.45371220275202984  1.0000
  C   C12       1.0  0.2524522853353755  0.442602520483206  0.04628779719873684  1.0000
  C   C13       1.0  0.8202231566092385  0.10105601740809628  0.5147593944587149  1.0000
  C   C14       1.0  0.679776843324001  0.6010560185495271  0.9852406053935852  1.0000
  C   C15       1.0  0.17977684334625457  0.8989439830785434  0.48524060544281855  1.0000
  C   C16       1.0  0.320223156631492  0.3989439819371126  0.014759394507948142  1.0000
  C   C17       1.0  0.887742999662748  0.2810010644934246  0.5369598726714628  1.0000
  C   C18       1.0  0.6122570002704916  0.7810010638386334  0.9630401271808372  1.0000
  C   C19       1.0  0.11225700029274498  0.7189989359932151  0.4630401272300705  1.0000
  C   C20       1.0  0.38774299968500153  0.21899893485178426  0.03695987272069616  1.0000
  C   C21       1.0  0.8861886338666471  0.41686099547716826  0.5906728373782374  1.0000
  C   C22       1.0  0.6138113662825994  0.916860996618599  0.9093271629562318  1.0000
  C   C23       1.0  0.11381136608884597  0.5831390050094714  0.409327162523296  1.0000
  C   C24       1.0  0.38618863388890057  0.08313900386804056  0.09067283742747072  1.0000
  C   C25       1.0  0.08316141870896955  0.47973098050986723  0.6677502769767774  1.0000
  C   C26       1.0  0.41683858111180405  0.979730981651298  0.8322497227511205  1.0000
  C   C27       1.0  0.9168385812465236  0.5202690181805505  0.332249722924756  1.0000
  C   C28       1.0  0.583161418843689  0.020269018835341615  0.16775027715041277  1.0000
  C   C29       1.0  0.058697895847947004  0.3411693090484712  0.7210767303397818  1.0000
  C   C30       1.0  0.4413021046499781  0.84116930839368  0.778923269386818  1.0000
  C   C31       1.0  0.9413021041075461  0.6588306914381684  0.2789232695617515  1.0000
  C   C32       1.0  0.5586978953055148  0.1588306902967377  0.22107673051471521  1.0000
  C   C33       1.0  0.11769825707029408  0.3145327051121725  0.6233384374146879  1.0000
  C   C34       1.0  0.3823017429664862  0.8145327062536032  0.8766615627953791  1.0000
  C   C35       1.0  0.882301742885199  0.6854672935782452  0.37666156248684546  1.0000
  C   C36       1.0  0.6176982572050137  0.18546729423303637  0.12333843758832332  1.0000
  C   C37       1.0  0.15469445614241448  0.6812149304123022  0.6950330835868336  1.0000
  C   C38       1.0  0.34530554367835914  0.18121493106709335  0.8049669161410644  1.0000
  C   C39       1.0  0.8453055438130787  0.31878507007433743  0.3049669163146998  1.0000
  C   C40       1.0  0.654694456277134  0.8187850694195462  0.19503308376046902  1.0000
  C   C41       1.0  0.4863340006765236  0.5436972680280324  0.6180857153908655  1.0000
  C   C42       1.0  0.013665999360256736  0.04369726688660165  0.8819142848192015  1.0000
  C   C43       1.0  0.5136659994949762  0.45630273245860725  0.38191428499283686  1.0000
  C   C44       1.0  0.9863340005952365  0.9563027318038161  0.11808571508233189  1.0000
  C   C45       1.0  0.3817025397559524  0.4904802801048608  0.6123870030059793  1.0000
  C   C46       1.0  0.1182974600648212  0.9904802794500697  0.8876129967219187  1.0000
  C   C47       1.0  0.6182974601995407  0.5095197203817788  0.3876129968955541  1.0000
  C   C48       1.0  0.8817025398906719  0.009519719240348085  0.11238700317961467  1.0000
  C   C49       1.0  0.497308482162109  0.7482516796560293  0.573001041358433  1.0000
  C   C50       1.0  0.0026915178746713406  0.24825168031082034  0.9269989588516341  1.0000
  C   C51       1.0  0.5026915177933842  0.25174832083061044  0.4269989585431004  1.0000
  C   C52       1.0  0.9973084822968284  0.7517483201758192  0.07300104153206836  1.0000
  O   O1        1.0  0.7006836990484411  0.4144064708166159  0.7109764292394787  1.0000
  O   O2        1.0  0.7993163008847987  0.9144064701618247  0.7890235706128214  1.0000
  O   O3        1.0  0.299316300907052  0.5855935296700238  0.28902357066205464  1.0000
  O   O4        1.0  0.2006836990706945  0.08559353032481481  0.21097642928871202  1.0000
  O   O5        1.0  0.9418659596136647  0.7886358763091571  0.663902551209662  1.0000
  O   O6        1.0  0.5581340403195749  0.28863587516772626  0.836097448642638  1.0000
  O   O7        1.0  0.0581340403418284  0.2113641241774826  0.33609744869187136  1.0000
  O   O8        1.0  0.4418659596359181  0.7113641235226914  0.1639025512588953  1.0000
  O   O9        1.0  0.9962274749839269  0.7530104121469574  0.5656101910966033  1.0000
  O   O10       1.0  0.5037725249493128  0.2530104128017486  0.9343898087556969  1.0000
  O   O11       1.0  0.003772524971566125  0.2469895865434603  0.43438980880493006  1.0000
  O   O12       1.0  0.4962274750061804  0.7469895876848911  0.0656101911458366  1.0000
  O   O13       1.0  0.5348434941611692  0.6030402977038393  0.6814822751541302  1.0000
  O   O14       1.0  0.9651565059880771  0.10304029835863038  0.8185177251803389  1.0000
  O   O15       1.0  0.4651565060103307  0.39695970278280035  0.31851772522957233  1.0000
  O   O16       1.0  0.0348434941834226  0.8969597021280094  0.18148227520336352  1.0000
  F   F1        1.0  0.5913390782146593  0.7693696755902009  0.5773841368550093  1.0000
  F   F2        1.0  0.9086609217185805  0.26936967444877  0.9226158629972908  1.0000
  F   F3        1.0  0.40866092174083396  0.23063032489643887  0.42261586304652404  1.0000
  F   F4        1.0  0.09133907823691259  0.7306303242416478  0.07738413690424262  1.0000
  F   F5        1.0  0.4491879806563447  0.7104115726763364  0.5096465662038766  1.0000
  F   F6        1.0  0.05081201916442897  0.21041157333112756  0.9903534335240215  1.0000
  F   F7        1.0  0.5508120192991485  0.2895884260140813  0.4903534336976567  1.0000
  F   F8        1.0  0.9491879807910641  0.7895884271555121  0.009646566377511993  1.0000
  F   F9        1.0  0.46883381560876025  0.9645487482946277  0.58970865049982  1.0000
  F   F10       1.0  0.031166184428020015  0.46454874715319694  0.9102913497102469  1.0000
  F   F11       1.0  0.5311661845627396  0.03545125219201194  0.41029134988388244  1.0000
  F   F12       1.0  0.968833815527473  0.5354512533334427  0.08970865019128636  1.0000
  F   F13       1.0  0.33236149502118234  0.41069386874088465  0.5522783141057631  1.0000
  F   F14       1.0  0.167638505015598  0.9106938698823154  0.947721686104304  1.0000
  F   F15       1.0  0.6676385051503174  0.5893061299495331  0.44772168627793935  1.0000
  F   F16       1.0  0.8323614949398952  0.08930613060432425  0.05227831379722942  1.0000
  F   F17       1.0  0.3344915376357892  0.6857158350071116  0.6250580955556826  1.0000
  F   F18       1.0  0.16550846218498436  0.18571583566190278  0.8749419041722153  1.0000
  F   F19       1.0  0.665508462319704  0.314284165479528  0.37494190434585073  1.0000
  F   F20       1.0  0.8344915377705087  0.8142841648247368  0.125058095729318  1.0000
  F   F21       1.0  0.3765147243839915  0.31577911067740844  0.654980017575149  1.0000
  F   F22       1.0  0.12348527565278883  0.8157791100226173  0.8450199826349181  1.0000
  F   F23       1.0  0.6234852757875083  0.6842208898092312  0.34501998280855345  1.0000
  F   F24       1.0  0.8765147243027044  0.18422088866780045  0.1549800172666153  1.0000
  S   S1        1.0  0.9753328539120318  0.6368188990761765  0.6195910169095042  1.0000
  S   S2        1.0  0.5246671460212078  0.13681889793474575  0.8804089829427959  1.0000
  S   S3        1.0  0.02466714604346125  0.3631811014104631  0.38040898299202913  1.0000
  S   S4        1.0  0.4753328539342853  0.863181102551894  0.11959101695873754  1.0000
  I   I1        1.0  0.8021416543126106  0.5993788161035435  0.6985827865953999  1.0000
  I   I2        1.0  0.6978583456206291  0.09937881675833456  0.8014172132569003  1.0000
  I   I3        1.0  0.1978583456428825  0.4006211843830962  0.3014172133061335  1.0000
  I   I4        1.0  0.3021416543348641  0.900621183728305  0.1985827866446332  1.0000
