data_image0
_chemical_formula_structural       H40C70N8O4F12I6
_chemical_formula_sum              "H40 C70 N8 O4 F12 I6"
_cell_length_a       7.658049676915808
_cell_length_b       14.86301847298418
_cell_length_c       15.291148288995776
_cell_angle_alpha    72.22850871255764
_cell_angle_beta     87.74276840942215
_cell_angle_gamma    88.70480344305022

_space_group_name_H-M_alt    "P 1"
_space_group_IT_number       1

loop_
  _space_group_symop_operation_xyz
  'x, y, z'

loop_
  _atom_site_type_symbol
  _atom_site_label
  _atom_site_symmetry_multiplicity
  _atom_site_fract_x
  _atom_site_fract_y
  _atom_site_fract_z
  _atom_site_occupancy
  H   H1        1.0  0.29659198035530243  0.8923701581079745  0.7990544512346429  1.0000
  H   H2        1.0  0.7034080197554353  0.10762984219888302  0.20094554869471223  1.0000
  H   H3        1.0  0.39233979068106734  0.8738258987798818  0.08173463180766702  1.0000
  H   H4        1.0  0.6076602094296704  0.12617410152697572  0.9182653681216882  1.0000
  H   H5        1.0  0.6036027724704212  0.6705472632468584  0.9527548895191843  1.0000
  H   H6        1.0  0.39639722767209506  0.32945273638717154  0.047245110409679034  1.0000
  H   H7        1.0  0.6306850180546374  0.6836925395370324  0.23964983610307558  1.0000
  H   H8        1.0  0.3693149820561003  0.31630746076982524  0.7603501638262795  1.0000
  H   H9        1.0  0.41770779571678457  0.7337628787557816  0.20850802139143834  1.0000
  H   H10       1.0  0.5822922043575229  0.26623712133535254  0.7914919792250471  1.0000
  H   H11       1.0  0.607153929156376  0.806600847410943  0.1762653438945619  1.0000
  H   H12       1.0  0.3928460709861402  0.19339915222308696  0.8237346560343013  1.0000
  H   H13       1.0  0.07685077414898527  0.17242684330460673  0.011840154479605363  1.0000
  H   H14       1.0  0.923149225993531  0.8275731563294232  0.988159845449258  1.0000
  H   H15       1.0  0.027394027942406446  0.1365606823254285  0.7436659609089493  1.0000
  H   H16       1.0  0.9726059721683312  0.8634393179814291  0.25633403902040586  1.0000
  H   H17       1.0  0.8898765204293997  0.2977811140924481  0.6934856745955145  1.0000
  H   H18       1.0  0.11012347971311656  0.7022188855415818  0.3065143253333488  1.0000
  H   H19       1.0  0.8537004838061258  0.3881849499238275  0.8060480570593961  1.0000
  H   H20       1.0  0.14629951630461188  0.61181505038303  0.19395194286995907  1.0000
  H   H21       1.0  0.0335297475094961  0.328688672211666  0.30710650623743974  1.0000
  H   H22       1.0  0.9664702526012416  0.6713113280951916  0.6928934936919154  1.0000
  H   H23       1.0  0.8888762559773544  0.3423561414471424  0.03256862370170168  1.0000
  H   H24       1.0  0.11112374413338331  0.6576438588597151  0.9674313762276536  1.0000
  H   H25       1.0  0.7490549584202216  0.5621590223657718  0.156057494778796  1.0000
  H   H26       1.0  0.25094504172229454  0.43784097726825816  0.8439425051500672  1.0000
  H   H27       1.0  0.6443541956590961  0.534244405760817  0.8805377738298168  1.0000
  H   H28       1.0  0.3556458044516417  0.4657555945460405  0.11946222609953844  1.0000
  H   H29       1.0  0.6503154260147455  0.4126433186635558  0.9486885030420401  1.0000
  H   H30       1.0  0.3496845740959923  0.5873566816433018  0.051311496887315095  1.0000
  H   H31       1.0  0.8506656586584606  0.47355797641260433  0.9057545972932823  1.0000
  H   H32       1.0  0.14933434148405558  0.5264420232214256  0.09424540263558087  1.0000
  H   H33       1.0  0.19861831740164768  0.03103643540553057  0.11357286681381601  1.0000
  H   H34       1.0  0.8013816827090899  0.968963564901327  0.8864271331155392  1.0000
  H   H35       1.0  0.2903148498870391  0.09355750527572676  0.36613899011536977  1.0000
  H   H36       1.0  0.7096851502236986  0.9064424950311307  0.6338610098139854  1.0000
  H   H37       1.0  0.484083948642059  0.9489006274902634  0.4102342183144709  1.0000
  H   H38       1.0  0.5159160515004573  0.051099372143766655  0.5897657816143923  1.0000
  H   H39       1.0  0.5283135522293313  0.8550598489779326  0.30148353502977465  1.0000
  H   H40       1.0  0.4716864478814064  0.14494015132892485  0.6985164648995805  1.0000
  C   C1        1.0  0.3557029280679415  0.8575375576592679  0.8646380951826466  1.0000
  C   C2        1.0  0.6442970720427963  0.14246244264758964  0.1353619047467087  1.0000
  C   C3        1.0  0.3333503287600175  0.8947179644704524  0.9389364806468247  1.0000
  C   C4        1.0  0.6666496713824985  0.10528203516357776  0.06106351928203861  1.0000
  C   C5        1.0  0.40943150885323504  0.8466269970930883  0.023054005114591124  1.0000
  C   C6        1.0  0.5905684912575025  0.15337300321376937  0.976945994814764  1.0000
  C   C7        1.0  0.5046377000282977  0.763917860209904  0.028458345026252087  1.0000
  C   C8        1.0  0.49536230008244003  0.23608214009695336  0.9715416549031032  1.0000
  C   C9        1.0  0.5252482344057159  0.7335784585593975  0.9500090574507516  1.0000
  C   C10       1.0  0.47475176570502176  0.2664215417474601  0.0499909424786035  1.0000
  C   C11       1.0  0.2356838879680871  0.9792600822308659  0.9265670764467111  1.0000
  C   C12       1.0  0.764316112137999  0.020739917187440577  0.07343292416928242  1.0000
  C   C13       1.0  0.5565853811552839  0.7353860346509513  0.18730004060476305  1.0000
  C   C14       1.0  0.4434146189872323  0.26461396498307865  0.8126999593241001  1.0000
  C   C15       1.0  0.03627826083671067  0.1979496385567422  0.9406837054759831  1.0000
  C   C16       1.0  0.9637217393058056  0.8020503610772879  0.05931629445288016  1.0000
  C   C17       1.0  0.06435011905379391  0.14135289753624353  0.8820863038369636  1.0000
  C   C18       1.0  0.9356498810887223  0.8586471020977865  0.11791369609189957  1.0000
  C   C19       1.0  0.008252654046264222  0.17769993763458303  0.7912205490169855  1.0000
  C   C20       1.0  0.9917473460962519  0.8223000619994469  0.20877945091187775  1.0000
  C   C21       1.0  0.9321207229507044  0.2669271098579715  0.7634792791513543  1.0000
  C   C22       1.0  0.06787927719181192  0.7330728897760584  0.23652072077750896  1.0000
  C   C23       1.0  0.9120822216303976  0.31751320311436315  0.8266141762866689  1.0000
  C   C24       1.0  0.08791777848034017  0.6824867971924944  0.17338582364268623  1.0000
  C   C25       1.0  0.15245526706211518  0.053159592209624594  0.9101775946431848  1.0000
  C   C26       1.0  0.847544733080401  0.9468404074244053  0.08982240528567852  1.0000
  C   C27       1.0  0.9698976917854522  0.36458800533654756  0.24315930286078172  1.0000
  C   C28       1.0  0.030102307019269678  0.635411994967819  0.7568406970728585  1.0000
  C   C29       1.0  0.9681743425500217  0.32304077586626073  0.17175379591376713  1.0000
  C   C30       1.0  0.03182565759249439  0.6769592237677695  0.828246204015096  1.0000
  C   C31       1.0  0.8866515636243971  0.37223252911319527  0.08965706816262312  1.0000
  C   C32       1.0  0.11334843651811896  0.6277674705208347  0.9103429317662401  1.0000
  C   C33       1.0  0.8067919375262648  0.459173737713269  0.08427727762271421  1.0000
  C   C34       1.0  0.19320806258447298  0.5408262625935886  0.915722722306641  1.0000
  C   C35       1.0  0.8122615827910461  0.49468574741910387  0.1595102374828723  1.0000
  C   C36       1.0  0.18773841731969163  0.5053142528877537  0.8404897624464828  1.0000
  C   C37       1.0  0.04860937167403722  0.2333102170163762  0.1863647524342166  1.0000
  C   C38       1.0  0.9513906284367005  0.7666897832904813  0.8136352474951387  1.0000
  C   C39       1.0  0.7170664132908788  0.4806974356229833  0.9318534043217043  1.0000
  C   C40       1.0  0.28293358681985886  0.5193025646838743  0.06814659560765092  1.0000
  C   C41       1.0  0.26021555177338607  0.015057241987951067  0.17996605201474514  1.0000
  C   C42       1.0  0.7397844483373516  0.9849427583189067  0.82003394791461  1.0000
  C   C43       1.0  0.22817884058325252  0.07401088682805751  0.23593012502159386  1.0000
  C   C44       1.0  0.7718211595592636  0.9259891128059726  0.7640698749072694  1.0000
  C   C45       1.0  0.3101237918969964  0.04946323954111659  0.3212365517099924  1.0000
  C   C46       1.0  0.6898762082137413  0.9505367607657409  0.6787634482193629  1.0000
  C   C47       1.0  0.41830260969940847  0.9701850686789287  0.34517174764185404  1.0000
  C   C48       1.0  0.5816973904113293  0.02981493162792898  0.6548282522875012  1.0000
  C   C49       1.0  0.44271262791360855  0.9172909872985437  0.2841750452501  1.0000
  C   C50       1.0  0.5572873722289075  0.08270901233548614  0.7158249546787633  1.0000
  C   C51       1.0  0.12504577300270614  0.15720208968601423  0.20745277655097466  1.0000
  C   C52       1.0  0.8749542270716013  0.8427979104051201  0.7925472240655107  1.0000
  C   C53       1.0  0.6060665459572959  0.6444414191820277  0.6286143865981844  1.0000
  C   C54       1.0  0.39393345418522013  0.35555858045200234  0.37138561333067904  1.0000
  C   C55       1.0  0.630746255586356  0.5473789023863338  0.646419238836073  1.0000
  C   C56       1.0  0.3692537445561602  0.4526210972476962  0.3535807610927903  1.0000
  C   C57       1.0  0.6868994469284623  0.5090368792353853  0.5775572747489403  1.0000
  C   C58       1.0  0.3131005532140539  0.49096312039864476  0.4224427251799231  1.0000
  C   C59       1.0  0.7235383846219317  0.566167955013102  0.4882201930346203  1.0000
  C   C60       1.0  0.2764616154888061  0.4338320452937555  0.5117798068947349  1.0000
  C   C61       1.0  0.6977874612369757  0.6631708572944366  0.47021525160660277  1.0000
  C   C62       1.0  0.3022125389055405  0.3368291423395933  0.5297847483222605  1.0000
  C   C63       1.0  0.6409785499282157  0.7014923709853357  0.5390030035951959  1.0000
  C   C64       1.0  0.3590214501825221  0.2985076293215218  0.4609969963341593  1.0000
  C   C65       1.0  0.948038888005374  0.09230079707115854  0.5006706395567044  1.0000
  C   C66       1.0  0.051961112068933626  0.9076992030199756  0.499329361059781  1.0000
  C   C67       1.0  0.06609574648129628  0.03825004236562065  0.5635744977229097  1.0000
  C   C68       1.0  0.9339042536612198  0.9617499572684093  0.43642550220595366  1.0000
  C   C69       1.0  0.8825960873309735  0.05221008573967223  0.4371737399152818  1.0000
  C   C70       1.0  0.11740391281154265  0.9477899138943576  0.5628262600135814  1.0000
  N   N1        1.0  0.4505509041170366  0.779364157668044  0.8710104577124116  1.0000
  N   N2        1.0  0.5494490960254796  0.2206358419659859  0.12898954221645162  1.0000
  N   N3        1.0  0.9618585116786368  0.2837035842992927  0.9139797625623648  1.0000
  N   N4        1.0  0.03814148843210087  0.7162964160075648  0.08602023736699045  1.0000
  N   N5        1.0  0.8934336748220613  0.4480324043435935  0.23632868966170856  1.0000
  N   N6        1.0  0.1065663253204549  0.5519675952904363  0.7636713102671548  1.0000
  N   N7        1.0  0.3648334330672676  0.9388763247592133  0.20306681692409503  1.0000
  N   N8        1.0  0.6351665670752485  0.06112367487481662  0.7969331830047681  1.0000
  O   O1        1.0  0.5802629687823893  0.707953293599602  0.10528317644273245  1.0000
  O   O2        1.0  0.4197370312919184  0.2920467064915321  0.894716824173753  1.0000
  O   O3        1.0  0.7203236465781097  0.5138061605105158  0.010690671022924559  1.0000
  O   O4        1.0  0.27967635349619796  0.4861938395806183  0.9893093295935609  1.0000
  F   F1        1.0  0.5985088585805525  0.48763565023946887  0.7324176083894798  1.0000
  F   F2        1.0  0.4014911415301853  0.5123643500673887  0.2675823915398754  1.0000
  F   F3        1.0  0.7040581128463069  0.4134086622073767  0.5988413956111649  1.0000
  F   F4        1.0  0.2959418859901934  0.5865913374241623  0.4011586043219834  1.0000
  F   F5        1.0  0.729675572885952  0.7229348377921924  0.38417724172229595  1.0000
  F   F6        1.0  0.2703244272247857  0.27706516251466506  0.6158227582070592  1.0000
  F   F7        1.0  0.6219338437151373  0.7970965039238157  0.5173699097637383  1.0000
  F   F8        1.0  0.3780661563956004  0.2029034963830418  0.48263009016561687  1.0000
  F   F9        1.0  0.13219596744128057  0.07211334853072514  0.6278169377679502  1.0000
  F   F10       1.0  0.8678040327012356  0.9278866511033048  0.37218306216091296  1.0000
  F   F11       1.0  0.7673328560013997  0.1006549478887573  0.37486989586500674  1.0000
  F   F12       1.0  0.23266714410933803  0.8993450524181001  0.6251301040643484  1.0000
  I   I1        1.0  0.5232096849068012  0.7041463446805108  0.7327679727804396  1.0000
  I   I2        1.0  0.47679031520393655  0.29585365562634663  0.26723202714891564  1.0000
  I   I3        1.0  0.8142263033882491  0.5094686145036952  0.3828894332642837  1.0000
  I   I4        1.0  0.18577369672248864  0.49053138580316236  0.6171105666650715  1.0000
  I   I5        1.0  0.8700997850816365  0.22784631935190877  0.5003561192324603  1.0000
  I   I6        1.0  0.1299002150291012  0.7721536809549487  0.49964388069689497  1.0000
