data_image0
_chemical_formula_structural       H28C10N2O2S2Cl2
_chemical_formula_sum              "H28 C10 N2 O2 S2 Cl2"
_cell_length_a       5.8006912785107625
_cell_length_b       8.038705698761598
_cell_length_c       9.51048359337542
_cell_angle_alpha    89.20897164506023
_cell_angle_beta     76.7345736616996
_cell_angle_gamma    76.20361564291255

_space_group_name_H-M_alt    "P 1"
_space_group_IT_number       1

loop_
  _space_group_symop_operation_xyz
  'x, y, z'

loop_
  _atom_site_type_symbol
  _atom_site_label
  _atom_site_symmetry_multiplicity
  _atom_site_fract_x
  _atom_site_fract_y
  _atom_site_fract_z
  _atom_site_occupancy
  H   H1        1.0  0.9207732084058755  0.8998181181120116  0.15747958054102407  1.0000
  H   H2        1.0  0.0792267909702  0.10018188196774709  0.8425204200646648  1.0000
  H   H3        1.0  0.7053916939631776  0.7911669184615749  0.23953339035831933  1.0000
  H   H4        1.0  0.2946083054128978  0.2088330816181838  0.7604666102473695  1.0000
  H   H5        1.0  0.6648109816076488  0.9111512607128326  0.0945851857490033  1.0000
  H   H6        1.0  0.33518901776842663  0.08884873936692618  0.9054148148566855  1.0000
  H   H7        1.0  0.03459137564342938  0.732511012307449  0.9451032543579779  1.0000
  H   H8        1.0  0.9654086241567092  0.2674889877114339  0.05489674516641221  1.0000
  H   H9        1.0  0.6380688609076592  0.551634798357127  0.08652729113041069  1.0000
  H   H10       1.0  0.3619311388924792  0.4483652016617559  0.9134727083939795  1.0000
  H   H11       1.0  0.6316120530468344  0.689378382176426  0.9388916465984636  1.0000
  H   H12       1.0  0.36838794632924104  0.31062161790333276  0.06110835400722519  1.0000
  H   H13       1.0  0.23023103135337003  0.623945568011122  0.1458375682641771  1.0000
  H   H14       1.0  0.7697689684467685  0.37605443200776095  0.854162431260213  1.0000
  H   H15       1.0  0.001018630029415204  0.512221105087189  0.2119265529079828  1.0000
  H   H16       1.0  0.9989813693466605  0.4877788949925699  0.788073447697706  1.0000
  H   H17       1.0  0.020192921664296846  0.20623201391618443  0.40939482302766733  1.0000
  H   H18       1.0  0.9798070777117788  0.7937679861635744  0.5906051775780214  1.0000
  H   H19       1.0  0.8243601084975726  0.4136596413476732  0.4820190874657853  1.0000
  H   H20       1.0  0.17563989302499802  0.5863403586777378  0.517980912056791  1.0000
  H   H21       1.0  0.9238458350686708  0.24800262768336193  0.6019958208100009  1.0000
  H   H22       1.0  0.07615416430740458  0.7519973723963967  0.39800417979568786  1.0000
  H   H23       1.0  0.4190256149790858  0.20512823493675908  0.30692787480651673  1.0000
  H   H24       1.0  0.5809743848210528  0.7948717650821239  0.6930721247178735  1.0000
  H   H25       1.0  0.5322957307913406  0.39471402282297396  0.3259008037839541  1.0000
  H   H26       1.0  0.46770426900879786  0.6052859771959089  0.6740991957404361  1.0000
  H   H27       1.0  0.7398440455105005  0.1946374333937158  0.24820611731724573  1.0000
  H   H28       1.0  0.26015595558800697  0.8053625666925711  0.7517938832866292  1.0000
  C   C1        1.0  0.9303453948431369  0.6811210333675894  0.040054761000215565  1.0000
  C   C2        1.0  0.06965460667943339  0.3188789666578217  0.9599452385223607  1.0000
  C   C3        1.0  0.7526611421633139  0.5953412238432086  0.9910971733074776  1.0000
  C   C4        1.0  0.24733885935925673  0.4046587761822023  0.008902826215098802  1.0000
  C   C5        1.0  0.10541146369293598  0.5569676002812981  0.11292643299018316  1.0000
  C   C6        1.0  0.8945885361072026  0.44303239973758485  0.8870735665342069  1.0000
  C   C7        1.0  0.8736487004900569  0.27556630664144605  0.49863047811519107  1.0000
  C   C8        1.0  0.12635129888601848  0.7244336934383128  0.5013695224904977  1.0000
  C   C9        1.0  0.5700578014824202  0.25431383140367586  0.3270915559015913  1.0000
  C   C10       1.0  0.4299421978936553  0.7456861686760828  0.6729084447040975  1.0000
  N   N1        1.0  0.7950718879985761  0.8318886066099791  0.13957057356879257  1.0000
  N   N2        1.0  0.20492811137749947  0.16811139346977963  0.8604294270368963  1.0000
  O   O1        1.0  0.399026629375831  0.30512916420285713  0.6102687866388186  1.0000
  O   O2        1.0  0.6009733700002445  0.6948708358769017  0.3897312139668702  1.0000
  S   S1        1.0  0.6136183420187948  0.19016718262963006  0.5029383058675606  1.0000
  S   S2        1.0  0.386381659503776  0.8098328173957808  0.4970616936550157  1.0000
  Cl  Cl1       1.0  0.21597670847800376  0.9945884678834312  0.1791378231689252  1.0000
  Cl  Cl2       1.0  0.7840232913221348  0.0054115321354516665  0.820862176355465  1.0000
