data_image0
_chemical_formula_structural       H42C66N10O12F16I8
_chemical_formula_sum              "H42 C66 N10 O12 F16 I8"
_cell_length_a       30.326448278727053
_cell_length_b       4.13428421977546
_cell_length_c       16.770858609239667
_cell_angle_alpha    90.0
_cell_angle_beta     90.0
_cell_angle_gamma    90.0

_space_group_name_H-M_alt    "P 1"
_space_group_IT_number       1

loop_
  _space_group_symop_operation_xyz
  'x, y, z'

loop_
  _atom_site_type_symbol
  _atom_site_label
  _atom_site_symmetry_multiplicity
  _atom_site_fract_x
  _atom_site_fract_y
  _atom_site_fract_z
  _atom_site_occupancy
  H   H1        1.0  0.05525040864001667  0.7965427205628488  0.15869312609514985  1.0000
  H   H2        1.0  0.944749591401958  0.20345727949146278  0.15869312609514985  1.0000
  H   H3        1.0  0.4447495913809707  0.296542720535693  0.8413068733539143  1.0000
  H   H4        1.0  0.5552504083312588  0.7034572795186187  0.8413068733539143  1.0000
  H   H5        1.0  0.09468099408179438  7.161820142498116e-05  0.4183592846066032  1.0000
  H   H6        1.0  0.9053190059601803  0.9999283818528866  0.4183592846066032  1.0000
  H   H7        1.0  0.40531900593919296  0.5000716182285807  0.5816407148424609  1.0000
  H   H8        1.0  0.5946809941027817  0.4999283818257308  0.5816407148424609  1.0000
  H   H9        1.0  0.0  0.5000000000271558  0.3837669167668089  1.0000
  H   H10       1.0  0.5000000000209874  5.431166627545281e-11  0.6162330832785277  1.0000
  H   H11       1.0  0.13270599982600165  0.2505522080570114  0.3183099997670317  1.0000
  H   H12       1.0  0.8672940002159731  0.7494477919973003  0.3183099997670317  1.0000
  H   H13       1.0  0.36729400019498576  0.7505522080841672  0.6816900002783048  1.0000
  H   H14       1.0  0.632705999846989  0.24944779197014447  0.6816900002783048  1.0000
  H   H15       1.0  0.22175928213517415  0.616296842343941  0.4441647457391398  1.0000
  H   H16       1.0  0.7782407179068006  0.3837031577103706  0.4441647457391398  1.0000
  H   H17       1.0  0.27824071788581317  0.11629684231678519  0.5558352543061967  1.0000
  H   H18       1.0  0.7217592821561616  0.8837031577375265  0.5558352543061967  1.0000
  H   H19       1.0  0.22169795052182778  0.5209368552114134  0.5920302723516992  1.0000
  H   H20       1.0  0.7783020495201469  0.4790631448428983  0.5920302723516992  1.0000
  H   H21       1.0  0.2783020494991596  0.020936855184257544  0.4079697276936373  1.0000
  H   H22       1.0  0.7216979505428152  0.9790631448700541  0.4079697276936373  1.0000
  H   H23       1.0  0.160944806828031  0.19014495816223664  0.6529949279976962  1.0000
  H   H24       1.0  0.8390551932139437  0.809855041892075  0.6529949279976962  1.0000
  H   H25       1.0  0.3390551931929563  0.6901449581893925  0.34700507204764036  1.0000
  H   H26       1.0  0.6609448068490184  0.3098550418649192  0.34700507204764036  1.0000
  H   H27       1.0  0.10287377114940387  0.9632388215961324  0.561913385567994  1.0000
  H   H28       1.0  0.8971262288925709  0.036761178458179236  0.561913385567994  1.0000
  H   H29       1.0  0.3971262288715835  0.4632388215689766  0.4380866144773426  1.0000
  H   H30       1.0  0.6028737711703912  0.536761178485335  0.4380866144773426  1.0000
  H   H31       1.0  0.1923109071790322  0.6780703263193293  0.17037467171929974  1.0000
  H   H32       1.0  0.8076890928629425  0.3219296737349824  0.17037467171929974  1.0000
  H   H33       1.0  0.30768909284195517  0.17807032629217348  0.8296253283260369  1.0000
  H   H34       1.0  0.6923109072000196  0.8219296737621381  0.8296253283260369  1.0000
  H   H35       1.0  0.1363792647918216  0.6233803200254998  0.20094985644582863  1.0000
  H   H36       1.0  0.8636207352501531  0.37661968002881185  0.20094985644582863  1.0000
  H   H37       1.0  0.36362073522916577  0.12338031999834395  0.799050143599508  1.0000
  H   H38       1.0  0.636379264812809  0.8766196800559677  0.799050143599508  1.0000
  H   H39       1.0  0.17100850064390344  0.28252883640966486  0.1881620383026451  1.0000
  H   H40       1.0  0.8289914993980713  0.7174711636446468  0.1881620383026451  1.0000
  H   H41       1.0  0.32899149937708394  0.7825288364368207  0.8118379617426914  1.0000
  H   H42       1.0  0.6710085006648908  0.21747116361749094  0.8118379617426914  1.0000
  C   C1        1.0  0.3264666887135909  0.23083143278713208  0.1474588837471642  1.0000
  C   C2        1.0  0.6735333113283838  0.7691685672671795  0.1474588837471642  1.0000
  C   C3        1.0  0.17353331130739647  0.730831432814288  0.8525411162981723  1.0000
  C   C4        1.0  0.8264666887345782  0.26916856724002375  0.8525411162981723  1.0000
  C   C5        1.0  0.3183215970849985  0.3188138550550805  0.06847822325371487  1.0000
  C   C6        1.0  0.6816784029569762  0.6811861449992312  0.06847822325371487  1.0000
  C   C7        1.0  0.18167840293598886  0.8188138550822363  0.9315217767916217  1.0000
  C   C8        1.0  0.8183215971059858  0.18118614497207536  0.9315217767916217  1.0000
  C   C9        1.0  0.35042263480140273  0.4763352385354281  0.023402865598292345  1.0000
  C   C10       1.0  0.6495773649108268  0.5236647615188835  0.023402865598292345  1.0000
  C   C11       1.0  0.1495773652195846  0.976335238562584  0.9765971344470443  1.0000
  C   C12       1.0  0.8504226348223901  0.023664761491727748  0.9765971344470443  1.0000
  C   C13       1.0  0.3917728736580789  0.5494072804997823  0.05532303572631836  1.0000
  C   C14       1.0  0.6082271263838958  0.45059271955452934  0.05532303572631836  1.0000
  C   C15       1.0  0.10822712636290843  0.049407280472626505  0.9446769643190182  1.0000
  C   C16       1.0  0.8917728736790663  0.9505927195816851  0.9446769643190182  1.0000
  C   C17       1.0  0.39999209398052094  0.4615636367892577  0.13436710263352244  1.0000
  C   C18       1.0  0.6000079060614537  0.538436363265054  0.13436710263352244  1.0000
  C   C19       1.0  0.10000790604046643  0.9615636368164134  0.865632897411814  1.0000
  C   C20       1.0  0.8999920940015083  0.03843636323789816  0.865632897411814  1.0000
  C   C21       1.0  0.3677436575328536  0.30497209987862867  0.17933753065826818  1.0000
  C   C22       1.0  0.6322563425091211  0.6950279001756829  0.17933753065826818  1.0000
  C   C23       1.0  0.13225634248813375  0.8049720999057846  0.8206624693870683  1.0000
  C   C24       1.0  0.8677436572240959  0.19502790014852717  0.8206624693870683  1.0000
  C   C25       1.0  0.030530530693548913  0.6638426978174856  0.19280064875262776  1.0000
  C   C26       1.0  0.9694694690186806  0.3361573022368261  0.19280064875262776  1.0000
  C   C27       1.0  0.4694694693274385  0.16384269779032978  0.8071993512927088  1.0000
  C   C28       1.0  0.5305305307145363  0.8361573022639819  0.8071993512927088  1.0000
  C   C29       1.0  0.031726138555925404  0.6719508413843109  0.2761791669657388  1.0000
  C   C30       1.0  0.9682738614860493  0.32804915867000073  0.2761791669657388  1.0000
  C   C31       1.0  0.46827386146506195  0.17195084135715513  0.7238208324833254  1.0000
  C   C32       1.0  0.5317261385769128  0.8280491586971566  0.7238208324833254  1.0000
  C   C33       1.0  0.06683427189928343  0.8656689549501696  0.315558911043728  1.0000
  C   C34       1.0  0.9331657281426914  0.13433104510414204  0.315558911043728  1.0000
  C   C35       1.0  0.4331657281217039  0.3656689549230138  0.6844410884053361  1.0000
  C   C36       1.0  0.5668342719202708  0.6343310451312979  0.6844410884053361  1.0000
  C   C37       1.0  0.0  0.5000000000271558  0.31892512033064535  1.0000
  C   C38       1.0  0.5000000000209874  5.431166627545281e-11  0.6810748791184188  1.0000
  C   C39       1.0  0.16205923736369343  0.34412296406589804  0.42642618405118293  1.0000
  C   C40       1.0  0.8379407626782813  0.6558770359884136  0.42642618405118293  1.0000
  C   C41       1.0  0.3379407626572939  0.8441229640930539  0.5735738159941537  1.0000
  C   C42       1.0  0.6620592373846809  0.1558770359612578  0.5735738159941537  1.0000
  C   C43       1.0  0.1962007388835496  0.47481847295603097  0.47301444278049687  1.0000
  C   C44       1.0  0.803799261158425  0.5251815270982807  0.47301444278049687  1.0000
  C   C45       1.0  0.3037992611374377  0.9748184729831868  0.5269855566685673  1.0000
  C   C46       1.0  0.6962007389045369  0.025181527071124844  0.5269855566685673  1.0000
  C   C47       1.0  0.19565265755707067  0.4204804550409973  0.5547380010033837  1.0000
  C   C48       1.0  0.8043473424849041  0.5795195450133144  0.5547380010033837  1.0000
  C   C49       1.0  0.30434734246391665  0.9204804550681531  0.4452619990419529  1.0000
  C   C50       1.0  0.695652657578058  0.07951954498615853  0.4452619990419529  1.0000
  C   C51       1.0  0.1619517457125103  0.23711785351159104  0.5892600963528148  1.0000
  C   C52       1.0  0.8380482543294644  0.7628821465427207  0.5892600963528148  1.0000
  C   C53       1.0  0.338048254308477  0.7371178535387468  0.4107399036925218  1.0000
  C   C54       1.0  0.6619517457334977  0.2628821465155648  0.4107399036925218  1.0000
  C   C55       1.0  0.12976829016804298  0.11266548336758954  0.5391763308420112  1.0000
  C   C56       1.0  0.8702317098739317  0.8873345166867221  0.5391763308420112  1.0000
  C   C57       1.0  0.3702317098529444  0.6126654833947455  0.46082366860705287  1.0000
  C   C58       1.0  0.6297682898592852  0.3873345166595663  0.46082366860705287  1.0000
  C   C59       1.0  0.1840482900833214  0.5606488927183356  0.293981327067161  1.0000
  C   C60       1.0  0.8159517096289082  0.439351107335976  0.293981327067161  1.0000
  C   C61       1.0  0.3159517096079208  0.060648892691179825  0.7060186729781754  1.0000
  C   C62       1.0  0.6840482901043088  0.9393511073631319  0.7060186729781754  1.0000
  C   C63       1.0  0.17029264134510028  0.5351322048487896  0.20798148689169202  1.0000
  C   C64       1.0  0.8297073586968744  0.464867795205522  0.20798148689169202  1.0000
  C   C65       1.0  0.3297073586758871  0.03513220482163381  0.7920185131536445  1.0000
  C   C66       1.0  0.6702926413660877  0.9648677952326778  0.7920185131536445  1.0000
  N   N1        1.0  0.0  0.5000000000271558  0.15143078354979572  1.0000
  N   N2        1.0  0.5000000000209874  5.431166627545281e-11  0.8485692164955408  1.0000
  N   N3        1.0  0.12968083779064538  0.16454793474188079  0.460047428087511  1.0000
  N   N4        1.0  0.8703191622513293  0.8354520653124309  0.460047428087511  1.0000
  N   N5        1.0  0.37031916223034195  0.6645479347690366  0.5399525713615533  1.0000
  N   N6        1.0  0.6296808378116328  0.33545206528527505  0.5399525713615533  1.0000
  N   N7        1.0  0.1580927122073539  0.38342095892141964  0.34473959352413364  1.0000
  N   N8        1.0  0.8419072875048756  0.6165790411328921  0.34473959352413364  1.0000
  N   N9        1.0  0.3419072874838883  0.8834209589485754  0.655260406521203  1.0000
  N   N10       1.0  0.6580927122283413  0.11657904110573622  0.655260406521203  1.0000
  O   O1        1.0  0.06708027433027808  0.8544148012619824  0.39356439427398165  1.0000
  O   O2        1.0  0.9329197257116967  0.1455851987923292  0.39356439427398165  1.0000
  O   O3        1.0  0.4329197256907093  0.35441480123482666  0.6064356057713549  1.0000
  O   O4        1.0  0.5670802743512655  0.645585198819485  0.6064356057713549  1.0000
  O   O5        1.0  0.09323874705049001  0.02445733641541743  0.27401589430061646  1.0000
  O   O6        1.0  0.9067612529914848  0.9755426636388942  0.27401589430061646  1.0000
  O   O7        1.0  0.40676125297049737  0.5244573364425733  0.72598410574472  1.0000
  O   O8        1.0  0.5932387470714774  0.4755426636117384  0.72598410574472  1.0000
  O   O9        1.0  0.21553964908528914  0.7291826153557799  0.3173456561769492  1.0000
  O   O10       1.0  0.7844603509566855  0.2708173846985318  0.3173456561769492  1.0000
  O   O11       1.0  0.28446035093569827  0.22918261532862408  0.6826543438683873  1.0000
  O   O12       1.0  0.7155396491062764  0.7708173847256875  0.6826543438683873  1.0000
  F   F1        1.0  0.2789923617905163  0.2531253910880943  0.03435341346701151  1.0000
  F   F2        1.0  0.7210076382514584  0.7468746089662174  0.03435341346701151  1.0000
  F   F3        1.0  0.22100763823047104  0.7531253911152501  0.9656465865783251  1.0000
  F   F4        1.0  0.7789923618115038  0.24687460893906155  0.9656465865783251  1.0000
  F   F5        1.0  0.34077934003400523  0.5572838870098613  0.9471127775920186  1.0000
  F   F6        1.0  0.6592206600079695  0.4427161130444504  0.9471127775920186  1.0000
  F   F7        1.0  0.15922065998698212  0.05728388698270544  0.0528872224533179  1.0000
  F   F8        1.0  0.8407793400549927  0.9427161130716063  0.0528872224533179  1.0000
  F   F9        1.0  0.43939437706416856  0.5263208343518724  0.16849937775058946  1.0000
  F   F10       1.0  0.5606056226480611  0.47367916570243923  0.16849937775058946  1.0000
  F   F11       1.0  0.06060562295681885  0.02632083432471657  0.8315006222947471  1.0000
  F   F12       1.0  0.9393943770851558  0.9736791657295951  0.8315006222947471  1.0000
  F   F13       1.0  0.37725275063038877  0.22609569403304533  0.25607594280437995  1.0000
  F   F14       1.0  0.622747249411586  0.7739043060212663  0.25607594280437995  1.0000
  F   F15       1.0  0.12274724939059861  0.7260956940602011  0.7439240572409566  1.0000
  F   F16       1.0  0.877252750321631  0.27390430599411053  0.7439240572409566  1.0000
  I   I1        1.0  0.27745708606115704  0.009942364340454672  0.2167107531392379  1.0000
  I   I2        1.0  0.7225429139808177  0.9900576357138569  0.2167107531392379  1.0000
  I   I3        1.0  0.22254291395983036  0.5099423643676105  0.7832892469060987  1.0000
  I   I4        1.0  0.7774570860821444  0.49005763568670113  0.7832892469060987  1.0000
  I   I5        1.0  0.4408462437514682  0.7610004931327327  0.9852339677407312  1.0000
  I   I6        1.0  0.5591537562905066  0.238999506921579  0.9852339677407312  1.0000
  I   I7        1.0  0.059153756269519187  0.2610004931055768  0.01476603230460525  1.0000
  I   I8        1.0  0.9408462437724555  0.7389995069487348  0.01476603230460525  1.0000
