data_image0
_chemical_formula_structural       H88C16N12O4Br12
_chemical_formula_sum              "H88 C16 N12 O4 Br12"
_cell_length_a       6.897249053548185
_cell_length_b       14.964479018361367
_cell_length_c       12.981246948803973
_cell_angle_alpha    90.0
_cell_angle_beta     90.0
_cell_angle_gamma    90.0

_space_group_name_H-M_alt    "P 1"
_space_group_IT_number       1

loop_
  _space_group_symop_operation_xyz
  'x, y, z'

loop_
  _atom_site_type_symbol
  _atom_site_label
  _atom_site_symmetry_multiplicity
  _atom_site_fract_x
  _atom_site_fract_y
  _atom_site_fract_z
  _atom_site_occupancy
  H   H1        1.0  0.27893855580150095  0.4755821169094937  0.7499999998765157  1.0000
  H   H2        1.0  0.7210614436840643  0.5244178832000079  0.25000000021561924  1.0000
  H   H3        1.0  0.7210614436840643  0.9755821169642445  0.7499999998765157  1.0000
  H   H4        1.0  0.27893855580150095  0.02441788314525713  0.25000000021561924  1.0000
  H   H5        1.0  0.389727001175516  0.5641868206464627  0.7499999998765157  1.0000
  H   H6        1.0  0.6102729983100492  0.4358131794630387  0.25000000021561924  1.0000
  H   H7        1.0  0.6102729983100492  0.06418682059171203  0.7499999998765157  1.0000
  H   H8        1.0  0.389727001175516  0.9358131795177896  0.25000000021561924  1.0000
  H   H9        1.0  0.8322103443614471  0.5243983977237917  0.9405285523148373  1.0000
  H   H10       1.0  0.16778965657397155  0.47560160171746074  0.4405285518835988  1.0000
  H   H11       1.0  0.16778965657397155  0.024398398337290066  0.5594714482085361  1.0000
  H   H12       1.0  0.8322103443614471  0.9756016017722116  0.05947144777729766  1.0000
  H   H13       1.0  0.16778965657397155  0.47560160171746074  0.05947144777729766  1.0000
  H   H14       1.0  0.8322103443614471  0.5243983977237917  0.5594714482085361  1.0000
  H   H15       1.0  0.8322103443614471  0.9756016017722116  0.4405285518835988  1.0000
  H   H16       1.0  0.16778965657397155  0.024398398337290066  0.9405285523148373  1.0000
  H   H17       1.0  0.7629865558200749  0.47508687146921424  0.06083574275372376  1.0000
  H   H18       1.0  0.23701344366549046  0.5249131279720383  0.5608357424146202  1.0000
  H   H19       1.0  0.23701344366549046  0.9750868715239651  0.4391642576775147  1.0000
  H   H20       1.0  0.7629865558200749  0.024913128585536518  0.9391642573384112  1.0000
  H   H21       1.0  0.23701344366549046  0.5249131279720383  0.9391642573384112  1.0000
  H   H22       1.0  0.7629865558200749  0.47508687146921424  0.4391642576775147  1.0000
  H   H23       1.0  0.7629865558200749  0.024913128585536518  0.5608357424146202  1.0000
  H   H24       1.0  0.23701344366549046  0.9750868715239651  0.06083574275372376  1.0000
  H   H25       1.0  0.6803542605998804  0.3795054998594846  0.9257619793688029  1.0000
  H   H26       1.0  0.31964573888568487  0.620494500250017  0.42576197970790647  1.0000
  H   H27       1.0  0.31964573888568487  0.8795054999142354  0.5742380203842286  1.0000
  H   H28       1.0  0.6803542605998804  0.12049450019526617  0.07423802072333202  1.0000
  H   H29       1.0  0.31964573888568487  0.620494500250017  0.07423802072333202  1.0000
  H   H30       1.0  0.6803542605998804  0.3795054998594846  0.5742380203842286  1.0000
  H   H31       1.0  0.6803542605998804  0.12049450019526617  0.42576197970790647  1.0000
  H   H32       1.0  0.31964573888568487  0.8795054999142354  0.9257619793688029  1.0000
  H   H33       1.0  0.5586276934595954  0.46049671368743617  0.8578612496872672  1.0000
  H   H34       1.0  0.44137230602596983  0.5395032864220655  0.35786124925602864  1.0000
  H   H35       1.0  0.44137230602596983  0.9604967137421869  0.6421387508361064  1.0000
  H   H36       1.0  0.5586276934595954  0.03950328636731461  0.14213875040486781  1.0000
  H   H37       1.0  0.44137230602596983  0.5395032864220655  0.14213875040486781  1.0000
  H   H38       1.0  0.5586276934595954  0.46049671368743617  0.6421387508361064  1.0000
  H   H39       1.0  0.5586276934595954  0.03950328636731461  0.35786124925602864  1.0000
  H   H40       1.0  0.44137230602596983  0.9604967137421869  0.8578612496872672  1.0000
  H   H41       1.0  0.45786307054918035  0.376921440638141  0.05811585381399035  1.0000
  H   H42       1.0  0.5421369289363849  0.6230785594713606  0.5581158542452289  1.0000
  H   H43       1.0  0.5421369289363849  0.8769214400246427  0.4418841458469061  1.0000
  H   H44       1.0  0.45786307054918035  0.12307855941660979  0.9418841462781447  1.0000
  H   H45       1.0  0.5421369289363849  0.6230785594713606  0.9418841462781447  1.0000
  H   H46       1.0  0.45786307054918035  0.376921440638141  0.4418841458469061  1.0000
  H   H47       1.0  0.45786307054918035  0.12307855941660979  0.5581158542452289  1.0000
  H   H48       1.0  0.5421369289363849  0.8769214400246427  0.05811585381399035  1.0000
  H   H49       1.0  0.3330398673683261  0.3650787911357726  0.9397097010872225  1.0000
  H   H50       1.0  0.6669601321172391  0.6349212089737291  0.4397097006559839  1.0000
  H   H51       1.0  0.6669601321172391  0.8650787911905233  0.560290299436151  1.0000
  H   H52       1.0  0.3330398673683261  0.1349212089189782  0.06029029900491253  1.0000
  H   H53       1.0  0.6669601321172391  0.6349212089737291  0.06029029900491253  1.0000
  H   H54       1.0  0.3330398673683261  0.3650787911357726  0.560290299436151  1.0000
  H   H55       1.0  0.3330398673683261  0.1349212089189782  0.4397097006559839  1.0000
  H   H56       1.0  0.6669601321172391  0.8650787911905233  0.9397097010872225  1.0000
  H   H57       1.0  0.12303630380918962  0.18564330148689678  0.6008837880338355  1.0000
  H   H58       1.0  0.876963697126229  0.8143566986226048  0.10088378760259696  1.0000
  H   H59       1.0  0.876963697126229  0.6856433015416477  0.899116211719196  1.0000
  H   H60       1.0  0.12303630380918962  0.31435669856785403  0.39911621205829956  1.0000
  H   H61       1.0  0.876963697126229  0.8143566986226048  0.39911621205829956  1.0000
  H   H62       1.0  0.12303630380918962  0.18564330148689678  0.899116211719196  1.0000
  H   H63       1.0  0.12303630380918962  0.31435669856785403  0.10088378760259696  1.0000
  H   H64       1.0  0.876963697126229  0.6856433015416477  0.6008837880338355  1.0000
  H   H65       1.0  0.7861161352743549  0.18714076357511947  0.814295583597531  1.0000
  H   H66       1.0  0.2138838642112105  0.8128592365343822  0.31429558393663454  1.0000
  H   H67       1.0  0.2138838642112105  0.6871407636298703  0.6857044161555005  1.0000
  H   H68       1.0  0.7861161352743549  0.3128592364796313  0.18570441649460398  1.0000
  H   H69       1.0  0.2138838642112105  0.8128592365343822  0.18570441649460398  1.0000
  H   H70       1.0  0.7861161352743549  0.18714076357511947  0.6857044161555005  1.0000
  H   H71       1.0  0.7861161352743549  0.3128592364796313  0.31429558393663454  1.0000
  H   H72       1.0  0.2138838642112105  0.6871407636298703  0.814295583597531  1.0000
  H   H73       1.0  0.08470696149495197  0.29975316043385963  0.7788663292420875  1.0000
  H   H74       1.0  0.9152930379906133  0.700246839675642  0.27886632881084905  1.0000
  H   H75       1.0  0.9152930379906133  0.7997531604886103  0.7211336712812859  1.0000
  H   H76       1.0  0.08470696149495197  0.2002468396208912  0.2211336708500474  1.0000
  H   H77       1.0  0.9152930379906133  0.700246839675642  0.2211336708500474  1.0000
  H   H78       1.0  0.08470696149495197  0.29975316043385963  0.7211336712812859  1.0000
  H   H79       1.0  0.08470696149495197  0.2002468396208912  0.27886632881084905  1.0000
  H   H80       1.0  0.9152930379906133  0.7997531604886103  0.7788663292420875  1.0000
  H   H81       1.0  0.1628355988424442  0.1587645120879161  0.8547934781428956  1.0000
  H   H82       1.0  0.8371644006431211  0.8412354880215855  0.3547934777116572  1.0000
  H   H83       1.0  0.8371644006431211  0.6587645121426668  0.6452065216101358  1.0000
  H   H84       1.0  0.1628355988424442  0.3412354879668347  0.1452065219492393  1.0000
  H   H85       1.0  0.8371644006431211  0.8412354880215855  0.1452065219492393  1.0000
  H   H86       1.0  0.1628355988424442  0.1587645120879161  0.6452065216101358  1.0000
  H   H87       1.0  0.1628355988424442  0.3412354879668347  0.3547934777116572  1.0000
  H   H88       1.0  0.8371644006431211  0.6587645121426668  0.8547934781428956  1.0000
  C   C1        1.0  0.7090964806445542  0.5061621490936083  0.9897270724969716  1.0000
  C   C2        1.0  0.29090351884101107  0.49383785101589317  0.48972707283607503  1.0000
  C   C3        1.0  0.29090351884101107  0.006162149038857586  0.51027292725606  1.0000
  C   C4        1.0  0.7090964806445542  0.993837851070644  0.010272927595163475  1.0000
  C   C5        1.0  0.29090351884101107  0.49383785101589317  0.010272927595163475  1.0000
  C   C6        1.0  0.7090964806445542  0.5061621490936083  0.51027292725606  1.0000
  C   C7        1.0  0.7090964806445542  0.993837851070644  0.48972707283607503  1.0000
  C   C8        1.0  0.29090351884101107  0.006162149038857586  0.9897270724969716  1.0000
  C   C9        1.0  0.4140797045063595  0.4123213399162923  0.9878462123533897  1.0000
  C   C10       1.0  0.5859202949792057  0.5876786601932094  0.48784621269249306  1.0000
  C   C11       1.0  0.5859202949792057  0.912321339971043  0.5121537873996419  1.0000
  C   C12       1.0  0.4140797045063595  0.08767866013845856  0.01215378773874541  1.0000
  C   C13       1.0  0.5859202949792057  0.5876786601932094  0.01215378773874541  1.0000
  C   C14       1.0  0.4140797045063595  0.4123213399162923  0.5121537873996419  1.0000
  C   C15       1.0  0.4140797045063595  0.08767866013845856  0.48784621269249306  1.0000
  C   C16       1.0  0.5859202949792057  0.912321339971043  0.9878462123533897  1.0000
  N   N1        1.0  0.595510319855279  0.4374185150026539  0.9320901279915027  1.0000
  N   N2        1.0  0.4044896796302862  0.5625814851068478  0.43209012756026427  1.0000
  N   N3        1.0  0.4044896796302862  0.9374185150574046  0.5679098725318706  1.0000
  N   N4        1.0  0.595510319855279  0.06258148505209693  0.06790987210063221  1.0000
  N   N5        1.0  0.4044896796302862  0.5625814851068478  0.06790987210063221  1.0000
  N   N6        1.0  0.595510319855279  0.4374185150026539  0.5679098725318706  1.0000
  N   N7        1.0  0.595510319855279  0.06258148505209693  0.43209012756026427  1.0000
  N   N8        1.0  0.4044896796302862  0.9374185150574046  0.9320901279915027  1.0000
  N   N9        1.0  0.7056278600663699  0.17016388053841092  0.7499999998765157  1.0000
  N   N10       1.0  0.29437213941919543  0.8298361195710906  0.25000000021561924  1.0000
  N   N11       1.0  0.29437213941919543  0.6701638805931617  0.7499999998765157  1.0000
  N   N12       1.0  0.7056278600663699  0.3298361195163399  0.25000000021561924  1.0000
  O   O1        1.0  0.41638023039382727  0.49720044251929657  0.7499999998765157  1.0000
  O   O2        1.0  0.5836197690917381  0.502799557590205  0.25000000021561924  1.0000
  O   O3        1.0  0.5836197690917381  0.9972004425740474  0.7499999998765157  1.0000
  O   O4        1.0  0.41638023039382727  0.0027995575354542116  0.25000000021561924  1.0000
  Br  Br1       1.0  0.5002609291344905  0.7555973513094709  0.7499999998765157  1.0000
  Br  Br2       1.0  0.4997390703510748  0.24440264880003063  0.25000000021561924  1.0000
  Br  Br3       1.0  0.4997390703510748  0.25559735125472016  0.7499999998765157  1.0000
  Br  Br4       1.0  0.5002609291344905  0.7444026488547815  0.25000000021561924  1.0000
  Br  Br5       1.0  0.9554952530835068  0.49351540210243094  0.7499999998765157  1.0000
  Br  Br6       1.0  0.04450474640205851  0.5064845980070707  0.25000000021561924  1.0000
  Br  Br7       1.0  0.04450474640205851  0.9935154021571817  0.7499999998765157  1.0000
  Br  Br8       1.0  0.9554952530835068  0.006484597952319885  0.25000000021561924  1.0000
  Br  Br9       1.0  0.8033923680267012  0.24999999969325085  0.4999999996608965  1.0000
  Br  Br10      1.0  0.19660763145886398  0.7499999997480017  0.0  1.0000
  Br  Br11      1.0  0.19660763145886398  0.7499999997480017  0.4999999996608965  1.0000
  Br  Br12      1.0  0.8033923680267012  0.24999999969325085  0.0  1.0000
