data_image0
_chemical_formula_structural       H36C64N4F8I4
_chemical_formula_sum              "H36 C64 N4 F8 I4"
_cell_length_a       9.35278659821201
_cell_length_b       5.732946979642604
_cell_length_c       24.725725908803224
_cell_angle_alpha    90.0
_cell_angle_beta     94.6296861985115
_cell_angle_gamma    90.0

_space_group_name_H-M_alt    "P 1"
_space_group_IT_number       1

loop_
  _space_group_symop_operation_xyz
  'x, y, z'

loop_
  _atom_site_type_symbol
  _atom_site_label
  _atom_site_symmetry_multiplicity
  _atom_site_fract_x
  _atom_site_fract_y
  _atom_site_fract_z
  _atom_site_occupancy
  H   H1        1.0  0.4779625795402848  0.24840491025939662  0.4506394589029514  1.0000
  H   H2        1.0  0.5220374204995029  0.7484049102905671  0.049360541115863514  1.0000
  H   H3        1.0  0.5220374211324972  0.7515950898029441  0.54936054123141  1.0000
  H   H4        1.0  0.4779625791050851  0.25159508977177375  0.9506394590229154  1.0000
  H   H5        1.0  0.6560550696074338  0.5633723809881366  0.47531285707386095  1.0000
  H   H6        1.0  0.34394493043235386  0.06337238270126981  0.024687142944953947  1.0000
  H   H7        1.0  0.3439449299971542  0.4366276173299005  0.524687143064918  1.0000
  H   H8        1.0  0.6560550701422093  0.9366276173610708  0.9753128567836703  1.0000
  H   H9        1.0  0.6890948812463802  0.8869119596003973  0.41006199988765457  1.0000
  H   H10       1.0  0.31090511879340754  0.3869119595692268  0.08993800013116034  1.0000
  H   H11       1.0  0.31090511932818304  0.11308804046194358  0.5899379998409698  1.0000
  H   H12       1.0  0.6890948808111803  0.6130880404931139  0.9100620000076186  1.0000
  H   H13       1.0  0.545573371001583  0.901933882933337  0.32251619252259206  1.0000
  H   H14       1.0  0.45442662903820463  0.4019338846464702  0.17748380749622283  1.0000
  H   H15       1.0  0.45442662967119896  0.09806611538470018  0.6774838076117692  1.0000
  H   H16       1.0  0.5455733705663832  0.5980661154158705  0.822516192642556  1.0000
  H   H17       1.0  0.41712055599783054  0.9025429780483623  0.25085135443186063  1.0000
  H   H18       1.0  0.5828794440419571  0.40254297801719197  0.2491486455869543  1.0000
  H   H19       1.0  0.5828794446749515  0.09745702201397836  0.7491486457025007  1.0000
  H   H20       1.0  0.4171205555626309  0.5974570220451487  0.7508513545518246  1.0000
  H   H21       1.0  0.2595309211147206  0.8810147011537287  0.1666378309592871  1.0000
  H   H22       1.0  0.7404690789250671  0.3810147011225583  0.3333621690595277  1.0000
  H   H23       1.0  0.7404690784898674  0.11898529890861208  0.8333621691794919  1.0000
  H   H24       1.0  0.2595309206795209  0.6189852989397825  0.6666378310792512  1.0000
  H   H25       1.0  0.0855811362615645  0.5540009773817929  0.15081408671461527  1.0000
  H   H26       1.0  0.9144188637782231  0.054000977350622516  0.34918591330419957  1.0000
  H   H27       1.0  0.9144188644112174  0.44599902268054786  0.849185913419746  1.0000
  H   H28       1.0  0.08558113582636478  0.9459990227117183  0.6508140868345792  1.0000
  H   H29       1.0  0.07071157188383678  0.24528100032902492  0.22123906419632025  1.0000
  H   H30       1.0  0.9292884281559509  0.7452810003601954  0.27876093582249467  1.0000
  H   H31       1.0  0.9292884277207512  0.7547189997333158  0.7787609359424585  1.0000
  H   H32       1.0  0.07071157241861226  0.25471899970214545  0.7212390639061297  1.0000
  H   H33       1.0  0.15105391822302092  0.08416645953876949  0.31053027490489715  1.0000
  H   H34       1.0  0.8489460818167667  0.5841664595699398  0.18946972511391774  1.0000
  H   H35       1.0  0.8489460823515421  0.9158335405235712  0.6894697248237271  1.0000
  H   H36       1.0  0.15105391778782123  0.41583354049240084  0.8105302750248612  1.0000
  C   C1        1.0  0.08095140177936448  0.6665583361523126  0.4726443712259543  1.0000
  C   C2        1.0  0.9190485982604233  0.16655833612114224  0.027355628792860593  1.0000
  C   C3        1.0  0.9190485978252235  0.33344166391002816  0.5273556289128246  1.0000
  C   C4        1.0  0.08095140241235882  0.8334416639411985  0.9726443713415007  1.0000
  C   C5        1.0  0.9973252477013345  0.4989655652071508  0.4441518010973825  1.0000
  C   C6        1.0  0.00267475233845337  0.9989655652383211  0.05584819892143237  1.0000
  C   C7        1.0  0.002674751903253676  0.50103443485519  0.5558481990413964  1.0000
  C   C8        1.0  0.9973252483343286  0.0010344348240195487  0.944151801212929  1.0000
  C   C9        1.0  0.9187560319244849  0.335523730959032  0.47102278478574033  1.0000
  C   C10       1.0  0.08124396811530286  0.8355237309902024  0.02897721523307455  1.0000
  C   C11       1.0  0.08124396874829717  0.6644762691033088  0.528977215348621  1.0000
  C   C12       1.0  0.9187560313910664  0.1644762690721384  0.9710227844999675  1.0000
  C   C13       1.0  0.40893698197962114  0.39979942395052237  0.3733837562076388  1.0000
  C   C14       1.0  0.5910630180601665  0.8997994239816927  0.12661624381117606  1.0000
  C   C15       1.0  0.591063018594942  0.6002005761118183  0.6266162435209855  1.0000
  C   C16       1.0  0.40893698154442143  0.10020057608064803  0.8733837563276029  1.0000
  C   C17       1.0  0.4933580639859756  0.3932018973844633  0.4231953734274401  1.0000
  C   C18       1.0  0.506641936053812  0.8932018974156337  0.07680462659137474  1.0000
  C   C19       1.0  0.5066419365885876  0.6067981026778774  0.5768046263011842  1.0000
  C   C20       1.0  0.49335806355077594  0.10679810264670705  0.9231953735474041  1.0000
  C   C21       1.0  0.5923580537374101  0.5673805656236471  0.4364088427189081  1.0000
  C   C22       1.0  0.4076419463023775  0.06738056559247677  0.06359115729990683  1.0000
  C   C23       1.0  0.4076419457689589  0.4326194344386936  0.5635911570141339  1.0000
  C   C24       1.0  0.5923580543704046  0.9326194344698641  0.9364088428344545  1.0000
  C   C25       1.0  0.6108895176208334  0.7501455735193454  0.39960073946580127  1.0000
  C   C26       1.0  0.38911048241895424  0.250145573488175  0.10039926055301363  1.0000
  C   C27       1.0  0.38911048295372974  0.24985442654299533  0.6003992602628232  1.0000
  C   C28       1.0  0.6108895171856337  0.7498544265741658  0.8996007395857651  1.0000
  C   C29       1.0  0.5295987669959803  0.75818239300566  0.3502148468508574  1.0000
  C   C30       1.0  0.4704012330438073  0.2581823929744896  0.14978515316795754  1.0000
  C   C31       1.0  0.47040123367680164  0.24181760705668076  0.6497851532835038  1.0000
  C   C32       1.0  0.5295987664625618  0.741817607087851  0.8502148465650844  1.0000
  C   C33       1.0  0.42619991179474565  0.5850996340819312  0.33592485242056014  1.0000
  C   C34       1.0  0.5738000882450419  0.0850996340507608  0.16407514759825473  1.0000
  C   C35       1.0  0.5738000888780364  0.4149003659804096  0.6640751477138012  1.0000
  C   C36       1.0  0.42619991135954594  0.91490036601158  0.8359248525405242  1.0000
  C   C37       1.0  0.3359727179342249  0.5861100463569041  0.2855380366315939  1.0000
  C   C38       1.0  0.6640272821055627  0.08611004632573374  0.21446196338722098  1.0000
  C   C39       1.0  0.6640272816703631  0.41388995370543663  0.714461963507185  1.0000
  C   C40       1.0  0.3359727185672192  0.913889953736607  0.7855380367471404  1.0000
  C   C41       1.0  0.3415458417393445  0.7587996252969346  0.2450248459716664  1.0000
  C   C42       1.0  0.6584541583004432  0.25879962526576406  0.2549751540471485  1.0000
  C   C43       1.0  0.6584541589334375  0.2412003747654063  0.754975154162695  1.0000
  C   C44       1.0  0.3415458412059259  0.7412003747965766  0.7450248456858934  1.0000
  C   C45       1.0  0.2523648586092591  0.746685736882022  0.19750984098698324  1.0000
  C   C46       1.0  0.7476351414305286  0.24668573685085163  0.30249015903183163  1.0000
  C   C47       1.0  0.7476351409953288  0.25331426318031874  0.8024901591517956  1.0000
  C   C48       1.0  0.25236485924225355  0.7533142632114892  0.6975098411025298  1.0000
  C   C49       1.0  0.15385138399281473  0.5618805461551318  0.18854928037955043  1.0000
  C   C50       1.0  0.8461486160469729  0.061880546123961516  0.3114507196392644  1.0000
  C   C51       1.0  0.8461486155135544  0.43811945390720886  0.8114507193534916  1.0000
  C   C52       1.0  0.15385138462580908  0.9381194539383793  0.6885492804950969  1.0000
  C   C53       1.0  0.1457731854575892  0.39045566406747884  0.22751535573033832  1.0000
  C   C54       1.0  0.8542268145821985  0.8904556640986493  0.2724846442884766  1.0000
  C   C55       1.0  0.8542268141469987  0.6095443359948619  0.7724846444084407  1.0000
  C   C56       1.0  0.14577318492417066  0.10954433596369154  0.7275153554445655  1.0000
  C   C57       1.0  0.23598229323602438  0.4002333997065924  0.2761339974255928  1.0000
  C   C58       1.0  0.7640177067055446  0.9002333997377627  0.22386600218748515  1.0000
  C   C59       1.0  0.7640177073385388  0.5997666003557484  0.7238660023030316  1.0000
  C   C60       1.0  0.23598229280082467  0.09976660032457794  0.7761339975455568  1.0000
  C   C61       1.0  0.22897395005071502  0.22571040768297285  0.31705801777702614  1.0000
  C   C62       1.0  0.7710260499890728  0.7257104077141433  0.1829419822417888  1.0000
  C   C63       1.0  0.771026050622067  0.7742895923793678  0.6829419823573353  1.0000
  C   C64       1.0  0.2289739496155153  0.2742895923481975  0.8170580178969901  1.0000
  N   N1        1.0  0.30932784422906917  0.2245194146345031  0.3628149279684208  1.0000
  N   N2        1.0  0.6906721558107186  0.7245194146656735  0.13718507205039407  1.0000
  N   N3        1.0  0.6906721564437128  0.7754805854278376  0.6371850721659406  1.0000
  N   N4        1.0  0.3093278436956506  0.27548058539666725  0.8628149276826479  1.0000
  F   F1        1.0  0.9914484095083684  0.49214878665699646  0.38904335549210806  1.0000
  F   F2        1.0  0.008551590531419212  0.9921487866881668  0.1109566445267068  1.0000
  F   F3        1.0  0.008551589998000689  0.5078512134053443  0.6109566442409339  1.0000
  F   F4        1.0  0.9914484090731688  0.007851213374173922  0.8890433556120723  1.0000
  F   F5        1.0  0.8406965607180281  0.17465137800078168  0.44099315998721195  1.0000
  F   F6        1.0  0.15930343932175955  0.6746513780319521  0.05900684003160296  1.0000
  F   F7        1.0  0.15930343888655984  0.825348622061559  0.559006840151567  1.0000
  F   F8        1.0  0.8406965613510224  0.32534862203038867  0.9409931601027585  1.0000
  I   I1        1.0  0.19987938608468633  0.9123032636743579  0.4306823967271351  1.0000
  I   I2        1.0  0.8001206139551014  0.4123032636431875  0.0693176032916798  1.0000
  I   I3        1.0  0.8001206135199016  0.08769673638798287  0.5693176034116438  1.0000
  I   I4        1.0  0.19987938555126777  0.5876967364191532  0.9306823964413621  1.0000
