data_image0
_chemical_formula_structural       H32C60N8O4F8I4
_chemical_formula_sum              "H32 C60 N8 O4 F8 I4"
_cell_length_a       4.065242725694467
_cell_length_b       25.71363187165943
_cell_length_c       12.761281071743714
_cell_angle_alpha    90.0
_cell_angle_beta     95.53018939152645
_cell_angle_gamma    90.0

_space_group_name_H-M_alt    "P 1"
_space_group_IT_number       1

loop_
  _space_group_symop_operation_xyz
  'x, y, z'

loop_
  _atom_site_type_symbol
  _atom_site_label
  _atom_site_symmetry_multiplicity
  _atom_site_fract_x
  _atom_site_fract_y
  _atom_site_fract_z
  _atom_site_occupancy
  H   H1        1.0  0.7009046994457578  0.7512235290764236  0.25573284269508834  1.0000
  H   H2        1.0  0.2990953010905696  0.2512235293031405  0.24426715743913363  1.0000
  H   H3        1.0  0.29909530050445565  0.2487764708590414  0.7442671573747508  1.0000
  H   H4        1.0  0.700904698859644  0.7487764710212232  0.7557328426307055  1.0000
  H   H5        1.0  0.25491577152423917  0.5941451847896452  0.15867672898602975  1.0000
  H   H6        1.0  0.7450842290120883  0.09414518462746323  0.3413232711481922  1.0000
  H   H7        1.0  0.7450842284259744  0.4058548151458199  0.8413232710838094  1.0000
  H   H8        1.0  0.2549157709381252  0.9058548153080017  0.658676728921647  1.0000
  H   H9        1.0  0.26359891644348826  0.7757634572806333  0.8783894785065618  1.0000
  H   H10       1.0  0.7364010829206115  0.2757634571184514  0.6216105214988947  1.0000
  H   H11       1.0  0.7364010835067253  0.2242365430437305  0.12161052156327745  1.0000
  H   H12       1.0  0.26359891702960214  0.7242365428170136  0.3783894785709445  1.0000
  H   H13       1.0  0.7869289491252109  0.6197557540506066  0.7852071194464845  1.0000
  H   H14       1.0  0.21307105269831011  0.11975575427732348  0.7147928805574781  1.0000
  H   H15       1.0  0.21307105082500263  0.3802442458848584  0.21479288062335478  1.0000
  H   H16       1.0  0.7869289472519034  0.8802442456581415  0.2852071195123613  1.0000
  H   H17       1.0  0.12975671206774575  0.5420331538370325  0.8353948168011459  1.0000
  H   H18       1.0  0.8702432897557753  0.042033153674850714  0.6646051832028166  1.0000
  H   H19       1.0  0.8702432878824677  0.45796684609843236  0.16460518326869336  1.0000
  H   H20       1.0  0.1297567101944383  0.9579668462606142  0.33539481686702266  1.0000
  H   H21       1.0  0.3377519675391797  0.8253074476573526  0.2039704471509507  1.0000
  H   H22       1.0  0.6622480329971477  0.32530744788406957  0.29602955298327127  1.0000
  H   H23       1.0  0.6622480324110339  0.1746925522781123  0.7960295529188887  1.0000
  H   H24       1.0  0.3377519694124872  0.6746925520513954  0.7039704470850741  1.0000
  H   H25       1.0  0.12332555558211512  0.8383954510043603  0.014735787445023735  1.0000
  H   H26       1.0  0.8766744449542122  0.3383954508421784  0.4852642126891982  1.0000
  H   H27       1.0  0.8766744443680984  0.1616045493200035  0.9852642126248156  1.0000
  H   H28       1.0  0.12332555499600129  0.6616045490932866  0.5147357873806411  1.0000
  H   H29       1.0  0.3611683203694134  0.5294647538687576  0.022757082279147394  1.0000
  H   H30       1.0  0.638831680166914  0.029464754095474468  0.47724291785507456  1.0000
  H   H31       1.0  0.6388316795808002  0.47053524606670744  0.9772429177906918  1.0000
  H   H32       1.0  0.3611683222427208  0.9705352458399904  0.5227570822132707  1.0000
  C   C1        1.0  0.6195044604026348  0.539062188460329  0.43469064046109374  1.0000
  C   C2        1.0  0.3804955401336925  0.039062188298147206  0.0653093596731282  1.0000
  C   C3        1.0  0.38049553954757864  0.4609378114751359  0.5653093596087455  1.0000
  C   C4        1.0  0.6195044598165211  0.9609378116373178  0.934690640396711  1.0000
  C   C5        1.0  0.5359790611545441  0.5055503448475354  0.6080784141639327  1.0000
  C   C6        1.0  0.4640209382095557  0.0055503450742522276  0.8919215858415238  1.0000
  C   C7        1.0  0.46402093879566964  0.49444965508792965  0.3919215859059065  1.0000
  C   C8        1.0  0.5359790614978227  0.9944496548612127  0.10807841344103213  1.0000
  C   C9        1.0  0.6538253613211148  0.5437697229931469  0.5440760572887163  1.0000
  C   C10       1.0  0.3461746380429849  0.04376972283096496  0.9559239427167403  1.0000
  C   C11       1.0  0.3461746386290987  0.45623027694231816  0.4559239427811229  1.0000
  C   C12       1.0  0.6538253619072287  0.9562302771045  0.04407605735309901  1.0000
  C   C13       1.0  0.9537748204236969  0.6429809469358722  0.04921942558638383  1.0000
  C   C14       1.0  0.046225180112630535  0.14298094716258894  0.4507805745478382  1.0000
  C   C15       1.0  0.046225179526516676  0.35701905299959297  0.9507805744834554  1.0000
  C   C16       1.0  0.953774819837583  0.8570190527728759  0.5492194255220011  1.0000
  C   C17       1.0  0.5605241463287234  0.7265111685988528  0.9879690128422202  1.0000
  C   C18       1.0  0.43947585549479773  0.22651116882556974  0.5120309871617424  1.0000
  C   C19       1.0  0.4394758560809116  0.2734888313366121  0.012030987226125191  1.0000
  C   C20       1.0  0.5605241444554158  0.7734888311098953  0.4879690129080968  1.0000
  C   C21       1.0  0.6848388888038442  0.7207663243568067  0.0967620953989048  1.0000
  C   C22       1.0  0.3151611117324832  0.2207663241946247  0.40323790473531723  1.0000
  C   C23       1.0  0.3151611111463693  0.2792336755786584  0.9032379046709345  1.0000
  C   C24       1.0  0.6848388882177303  0.7792336757408403  0.5967620953345221  1.0000
  C   C25       1.0  0.6053488708814102  0.756657149293799  0.17399666369902483  1.0000
  C   C26       1.0  0.39465112965491717  0.2566571491316172  0.3260033364351971  1.0000
  C   C27       1.0  0.39465112906880334  0.2433428506416659  0.8260033363708145  1.0000
  C   C28       1.0  0.6053488702952964  0.7433428508038478  0.6739966636346422  1.0000
  C   C29       1.0  0.15159170298777364  0.5990661769167613  0.0774187629626134  1.0000
  C   C30       1.0  0.8484082975485538  0.0990661771434782  0.4225812371716086  1.0000
  C   C31       1.0  0.8484082969624399  0.40093382301870367  0.922581237107226  1.0000
  C   C32       1.0  0.15159170240165976  0.9009338231808856  0.5774187628982307  1.0000
  C   C33       1.0  0.8170379608037708  0.6513271852685651  0.9425328183459311  1.0000
  C   C34       1.0  0.1829620410197501  0.15132718549528193  0.5574671816580313  1.0000
  C   C35       1.0  0.1829620391464427  0.3486728146669  0.0574671817239081  1.0000
  C   C36       1.0  0.8170379589304634  0.8486728148290819  0.44253281841180786  1.0000
  C   C37       1.0  0.3576641861674629  0.7706374202175736  0.9606587481185466  1.0000
  C   C38       1.0  0.6423358131966368  0.27063742005539165  0.5393412518869101  1.0000
  C   C39       1.0  0.6423358137827507  0.22936258010679023  0.03934125195129278  1.0000
  C   C40       1.0  0.35766418675357675  0.7293625798800734  0.4606587481829291  1.0000
  C   C41       1.0  0.8891363315487222  0.6135221667145188  0.866233049660359  1.0000
  C   C42       1.0  0.11086366781537742  0.11352216694123568  0.6337669503450974  1.0000
  C   C43       1.0  0.11086366840149134  0.3864778332209462  0.1337669504094803  1.0000
  C   C44       1.0  0.889136332134836  0.8864778329942292  0.36623304972474174  1.0000
  C   C45       1.0  0.07834994411529096  0.5706131002120902  0.894739986730396  1.0000
  C   C46       1.0  0.9216500552488086  0.07061310004990838  0.6052600132750604  1.0000
  C   C47       1.0  0.9216500558349227  0.42938689972337474  0.10526001333944322  1.0000
  C   C48       1.0  0.07834994470140486  0.9293868998855566  0.3947399867947788  1.0000
  C   C49       1.0  0.4044982711772792  0.7981439507431018  0.14384996898336497  1.0000
  C   C50       1.0  0.595501729116213  0.2981439505809201  0.3561500303635737  1.0000
  C   C51       1.0  0.5955017287729343  0.20185604919236302  0.8561500310864743  1.0000
  C   C52       1.0  0.4044982705911654  0.7018560493545448  0.6438499689189824  1.0000
  C   C53       1.0  0.28249896272214364  0.8053109923698866  0.03677288716219865  1.0000
  C   C54       1.0  0.7175010378141837  0.30531099220770475  0.46322711297202335  1.0000
  C   C55       1.0  0.7175010372280699  0.19468900795447716  0.9632271129076407  1.0000
  C   C56       1.0  0.28249896213602976  0.6946890077277602  0.5367728870978159  1.0000
  C   C57       1.0  0.20958266195206895  0.5634287817571151  0.0009146814156178628  1.0000
  C   C58       1.0  0.7904173385842584  0.06342878159493322  0.4990853187186041  1.0000
  C   C59       1.0  0.7904173379981447  0.4365712181783499  0.9990853186542215  1.0000
  C   C60       1.0  0.20958266136595508  0.9365712183405317  0.5009146813512351  1.0000
  N   N1        1.0  0.8878699317803913  0.6789777561233042  0.12481342784886496  1.0000
  N   N2        1.0  0.11213006875593616  0.1789777559611224  0.37518657228535707  1.0000
  N   N3        1.0  0.11213006816982227  0.32102224381216077  0.8751865722209743  1.0000
  N   N4        1.0  0.8878699311942774  0.8210222439743426  0.6248134277844822  1.0000
  N   N5        1.0  0.6268085143686754  0.6925201441351587  0.9124112357429139  1.0000
  N   N6        1.0  0.3731914849954243  0.19252014397297687  0.5875887642625425  1.0000
  N   N7        1.0  0.3731914853387031  0.30747985580030623  0.08758876353964193  1.0000
  N   N8        1.0  0.6268085149547892  0.8074798559624882  0.4124112358072967  1.0000
  O   O1        1.0  0.01565419964419615  0.6736802267552288  0.2211347230151563  1.0000
  O   O2        1.0  0.9843458008921313  0.1736802269819456  0.2788652771190656  1.0000
  O   O3        1.0  0.9843458003060173  0.32631977318023625  0.7788652770546829  1.0000
  O   O4        1.0  0.015654199058082262  0.8263197729535193  0.7211347229507735  1.0000
  F   F1        1.0  0.5763503442152049  0.5124211957207924  0.7140730902387126  1.0000
  F   F2        1.0  0.4236496551488948  0.01242119555861044  0.7859269097667441  1.0000
  F   F3        1.0  0.4236496557350086  0.48757880421467265  0.28592690983112673  1.0000
  F   F4        1.0  0.5763503448013187  0.9875788043768545  0.2140730903030952  1.0000
  F   F5        1.0  0.805477505943861  0.5860942497434696  0.5907684016311018  1.0000
  F   F6        1.0  0.19452249587966006  0.08609424997018644  0.9092315983728607  1.0000
  F   F7        1.0  0.19452249646577388  0.41390575019199544  0.4092315984372434  1.0000
  F   F8        1.0  0.8054775040705535  0.9139057503541773  0.09076840169697854  1.0000
  I   I1        1.0  0.7868921788222238  0.5973530486344609  0.3379270037647592  1.0000
  I   I2        1.0  0.2131078217141036  0.09735304886117783  0.1620729963694628  1.0000
  I   I3        1.0  0.21310782112798976  0.4026469513010041  0.6620729963050801  1.0000
  I   I4        1.0  0.7868921806955312  0.902646951074287  0.8379270036988824  1.0000
