data_image0
_chemical_formula_structural       H24C56N8O4F16I8
_chemical_formula_sum              "H24 C56 N8 O4 F16 I8"
_cell_length_a       12.005402491360178
_cell_length_b       4.343591575927006
_cell_length_c       29.03383731030822
_cell_angle_alpha    90.0
_cell_angle_beta     90.50835480647817
_cell_angle_gamma    90.0

_space_group_name_H-M_alt    "P 1"
_space_group_IT_number       1

loop_
  _space_group_symop_operation_xyz
  'x, y, z'

loop_
  _atom_site_type_symbol
  _atom_site_label
  _atom_site_symmetry_multiplicity
  _atom_site_fract_x
  _atom_site_fract_y
  _atom_site_fract_z
  _atom_site_occupancy
  H   H1        1.0  0.05016655532002622  0.4715181513268545  0.8525710848265085  1.0000
  H   H2        1.0  0.9498334444709738  0.9715181517957054  0.6474289153488395  1.0000
  H   H3        1.0  0.9498334445881492  0.5284818473086053  0.14742891543235837  1.0000
  H   H4        1.0  0.05016655542726356  0.028481849141996543  0.3525710845655896  1.0000
  H   H5        1.0  0.3540657351744409  0.2696708494628696  0.7518981338905325  1.0000
  H   H6        1.0  0.6459342646165592  0.7696708499317206  0.7481018662848155  1.0000
  H   H7        1.0  0.6459342647237966  0.7303291491725902  0.24810186602389664  1.0000
  H   H8        1.0  0.35406573529161617  0.2303291510059814  0.25189813397405136  1.0000
  H   H9        1.0  0.012014275332867218  0.8193211764484291  0.7847759617048489  1.0000
  H   H10       1.0  0.9879857244581328  0.31932117597957804  0.7152240384704991  1.0000
  H   H11       1.0  0.9879857245653703  0.18067882448927297  0.2152240382095803  1.0000
  H   H12       1.0  0.012014275450042515  0.6806788249581239  0.28477596178836767  1.0000
  H   H13       1.0  0.422174054839108  0.593025652843583  0.8886583631754814  1.0000
  H   H14       1.0  0.5778259449518921  0.09302565237473201  0.6113416369998665  1.0000
  H   H15       1.0  0.5778259450591294  0.406974348094119  0.11134163673894776  1.0000
  H   H16       1.0  0.42217405495628335  0.9069743462607277  0.3886583632590002  1.0000
  H   H17       1.0  0.5783069593536213  0.8949689979013183  0.8550356757769804  1.0000
  H   H18       1.0  0.4216930412703106  0.3949689974324673  0.6449643243973142  1.0000
  H   H19       1.0  0.4216930405545541  0.10503100073414147  0.14496432448188648  1.0000
  H   H20       1.0  0.5783069594608586  0.6050310012029925  0.3550356755160615  1.0000
  H   H21       1.0  0.544334166388629  0.23166336254468098  0.7867992515615734  1.0000
  H   H22       1.0  0.45566583339243316  0.731663363013532  0.713200748269337  1.0000
  H   H23       1.0  0.45566583350960843  0.768336638393021  0.2132007483528558  1.0000
  H   H24       1.0  0.5443341665058044  0.26833663792417  0.2867992516450922  1.0000
  C   C1        1.0  0.1271852598421456  0.5401087853199725  0.5808864560874493  1.0000
  C   C2        1.0  0.8728147399488545  0.04010878715336373  0.9191135440878987  1.0000
  C   C3        1.0  0.8728147400560919  0.45989121331548727  0.4191135438269799  1.0000
  C   C4        1.0  0.1271852599593209  0.9598912137843383  0.08088645617096811  1.0000
  C   C5        1.0  0.21560851296876815  0.716567394883516  0.5977055846820014  1.0000
  C   C6        1.0  0.784391486822232  0.21656739441466497  0.9022944154933465  1.0000
  C   C7        1.0  0.7843914869294693  0.283432606054186  0.40229441523242776  1.0000
  C   C8        1.0  0.21560851308594342  0.7834326042207949  0.09770558476552024  1.0000
  C   C9        1.0  0.30749349473634113  0.7555117930947816  0.5692270794891247  1.0000
  C   C10       1.0  0.692506505877653  0.25551179492817283  0.9307729203407323  1.0000
  C   C11       1.0  0.6925065059948281  0.24448820554067818  0.4307729204242512  1.0000
  C   C12       1.0  0.3074934940205847  0.7444882060095293  0.06922707957369681  1.0000
  C   C13       1.0  0.22331381708463907  0.43846539360541514  0.5092544885432306  1.0000
  C   C14       1.0  0.7766861826964231  0.9384653940742661  0.9907455112876796  1.0000
  C   C15       1.0  0.7766861828135985  0.5615346073322868  0.49074551137119854  1.0000
  C   C16       1.0  0.22331381720181437  0.061534606863435835  0.009254488626749472  1.0000
  C   C17       1.0  0.131193973218591  0.4019871204459079  0.5377109927736734  1.0000
  C   C18       1.0  0.868806026572409  0.9019871186125167  0.9622890074016746  1.0000
  C   C19       1.0  0.8688060266796465  0.5980128804917941  0.46228900714075577  1.0000
  C   C20       1.0  0.1311939733357663  0.09801288002294312  0.03771099285719226  1.0000
  C   C21       1.0  0.3113900566922622  0.6188091290388785  0.5257811765144229  1.0000
  C   C22       1.0  0.6886099430887999  0.11880912857002751  0.9742188233164875  1.0000
  C   C23       1.0  0.6886099432059752  0.3811908718988235  0.47421882340000626  1.0000
  C   C24       1.0  0.3113900568094375  0.8811908723676746  0.02578117659794173  1.0000
  C   C25       1.0  0.28339590355098304  0.9515253167231615  0.8005713503952901  1.0000
  C   C26       1.0  0.7166040962400171  0.45152531625431047  0.6994286497800579  1.0000
  C   C27       1.0  0.7166040963472545  0.04847468421454052  0.199428649519139  1.0000
  C   C28       1.0  0.28339590366815837  0.5484746846833916  0.300571350478809  1.0000
  C   C29       1.0  0.3010972400837506  0.7545134326540732  0.8392276375560987  1.0000
  C   C30       1.0  0.6989027597072494  0.2545134321852221  0.6607723626192491  1.0000
  C   C31       1.0  0.6989027598244247  0.2454865682836289  0.160772362702768  1.0000
  C   C32       1.0  0.30109724019098794  0.7454865687524799  0.3392276372951799  1.0000
  C   C33       1.0  0.11787190621438942  0.6077674094937429  0.8382320649447854  1.0000
  C   C34       1.0  0.8821280935766107  0.1077674090248918  0.6617679352305627  1.0000
  C   C35       1.0  0.882128093683848  0.39223258914171694  0.16176793496964378  1.0000
  C   C36       1.0  0.11787190633156472  0.892232589610568  0.3382320650283042  1.0000
  C   C37       1.0  0.3711133501857058  0.12093817082419626  0.7812976131024898  1.0000
  C   C38       1.0  0.6288866504382262  0.6209381712930473  0.7187023870718048  1.0000
  C   C39       1.0  0.6288866497125316  0.8790618278112635  0.21870238681193938  1.0000
  C   C40       1.0  0.3711133494699492  0.3790618296446548  0.281297613187062  1.0000
  C   C41       1.0  0.09397218867495931  0.8015385077398695  0.8008364193474325  1.0000
  C   C42       1.0  0.9060278119390347  0.3015385072710185  0.6991635804824243  1.0000
  C   C43       1.0  0.9060278120562101  0.19846149319783252  0.19916358056594316  1.0000
  C   C44       1.0  0.09397218795920279  0.6984614936666835  0.3008364194320049  1.0000
  C   C45       1.0  0.40939581120622903  0.7404678579416349  0.8587496900030811  1.0000
  C   C46       1.0  0.590604189407765  0.2404678597750262  0.6412503098267759  1.0000
  C   C47       1.0  0.5906041886920084  0.25953214069382485  0.14125030991134815  1.0000
  C   C48       1.0  0.4093958113234043  0.7595321411626759  0.35874969008659985  1.0000
  C   C49       1.0  0.495044371171206  0.9090110916234895  0.8399438952407441  1.0000
  C   C50       1.0  0.5049556286197942  0.4090110934568807  0.660056104934604  1.0000
  C   C51       1.0  0.5049556287270315  0.09098890701197034  0.1600561046736851  1.0000
  C   C52       1.0  0.49504437128838136  0.5909889074808213  0.3399438953242629  1.0000
  C   C53       1.0  0.47600951681920534  0.09776093184115155  0.8010265895863631  1.0000
  C   C54       1.0  0.5239904829717947  0.5977609323100026  0.6989734105889849  1.0000
  C   C55       1.0  0.5239904830790321  0.9022390667943082  0.19897341032806615  1.0000
  C   C56       1.0  0.47600951693638066  0.40223906632545725  0.30102658966988183  1.0000
  N   N1        1.0  0.17511029138811898  0.9763314266247364  0.7825385499907221  1.0000
  N   N2        1.0  0.8248897083929433  0.4763314284581276  0.7174614498401882  1.0000
  N   N3        1.0  0.8248897085101184  0.02366857201072343  0.21746144992370714  1.0000
  N   N4        1.0  0.17511029150529428  0.5236685724795744  0.28253855007424084  1.0000
  N   N5        1.0  0.21749028248912403  0.581916618037588  0.8576390854277767  1.0000
  N   N6        1.0  0.7825097172919381  0.08191661756873696  0.6423609144031337  1.0000
  N   N7        1.0  0.7825097174091135  0.41808338290011404  0.14236091448665256  1.0000
  N   N8        1.0  0.2174902826062993  0.9180833810667228  0.3576390855112955  1.0000
  O   O1        1.0  0.1549975057418025  0.16639183665553406  0.7491067972866894  1.0000
  O   O2        1.0  0.8450024940392598  0.666391837124385  0.750893202544221  1.0000
  O   O3        1.0  0.8450024941564349  0.8336081619799258  0.2508932026277398  1.0000
  O   O4        1.0  0.15499750585897779  0.333608163813317  0.24910679737020827  1.0000
  F   F1        1.0  0.034696818280480435  0.49939696725216537  0.6067170121173853  1.0000
  F   F2        1.0  0.9653031815105197  0.9993969677210164  0.8932829880579627  1.0000
  F   F3        1.0  0.9653031816276949  0.5006030313832944  0.39328298814148155  1.0000
  F   F4        1.0  0.034696818387717786  0.0006030332166856606  0.1067170118564665  1.0000
  F   F5        1.0  0.04322925848727008  0.22954137666297825  0.5241682397268993  1.0000
  F   F6        1.0  0.9567707421267239  0.729541374829587  0.9758317601029578  1.0000
  F   F7        1.0  0.9567707422438991  0.7704586242747238  0.4758317601864765  1.0000
  F   F8        1.0  0.043229257771513534  0.27045862380587277  0.02416823981147146  1.0000
  F   F9        1.0  0.39484429897760887  0.9313333192789078  0.5833139702014025  1.0000
  F   F10       1.0  0.6051557008034533  0.43133331881005677  0.9166860296295078  1.0000
  F   F11       1.0  0.6051557009206285  0.06866668165879422  0.41668602971302665  1.0000
  F   F12       1.0  0.39484429909478413  0.568666679825403  0.08331397028492128  1.0000
  F   F13       1.0  0.40215509180246334  0.6673230941105203  0.4996841512378808  1.0000
  F   F14       1.0  0.5978449082129493  0.16732309364166922  0.000315848760067154  1.0000
  F   F15       1.0  0.5978449081057121  0.33267690682718176  0.5003158490209859  1.0000
  F   F16       1.0  0.40215509168528807  0.8326769072960328  0.999684151154362  1.0000
  I   I1        1.0  0.20595561725934577  0.9134277545773275  0.6634466107445189  1.0000
  I   I2        1.0  0.7940443825217164  0.41342775410847654  0.8365533890863913  1.0000
  I   I3        1.0  0.7940443826388917  0.08657224405813226  0.3365533891699101  1.0000
  I   I4        1.0  0.20595561737652107  0.5865722445269833  0.1634466108280379  1.0000
  I   I5        1.0  0.22693440348195668  0.22982886916271528  0.4439427731740194  1.0000
  I   I6        1.0  0.7730655965334561  0.7298288696315663  0.056057226823928594  1.0000
  I   I7        1.0  0.7730655964262186  0.7701711317749868  0.5560572270848474  1.0000
  I   I8        1.0  0.2269344033647814  0.27017113130613574  0.9439427730905007  1.0000
