data_image0
_chemical_formula_structural       H24C20N4I8
_chemical_formula_sum              "H24 C20 N4 I8"
_cell_length_a       13.514362779388316
_cell_length_b       4.654518901704942
_cell_length_c       13.920760471905744
_cell_angle_alpha    90.0
_cell_angle_beta     117.21971094889076
_cell_angle_gamma    90.0

_space_group_name_H-M_alt    "P 1"
_space_group_IT_number       1

loop_
  _space_group_symop_operation_xyz
  'x, y, z'

loop_
  _atom_site_type_symbol
  _atom_site_label
  _atom_site_symmetry_multiplicity
  _atom_site_fract_x
  _atom_site_fract_y
  _atom_site_fract_z
  _atom_site_occupancy
  H   H1        1.0  0.29914468306605174  0.9974987013801411  0.37541790802848407  1.0000
  H   H2        1.0  0.7008553172142163  0.49749870156329007  0.124582092549124  1.0000
  H   H3        1.0  0.7008553171744284  0.0025012982535607344  0.6245820922745565  1.0000
  H   H4        1.0  0.29914468302626385  0.5025012980704116  0.8754179077539167  1.0000
  H   H5        1.0  0.27982039781378326  0.24711499389951627  0.272689022198913  1.0000
  H   H6        1.0  0.7201796024664848  0.7471149937163671  0.22731097837869507  1.0000
  H   H7        1.0  0.720179602426697  0.7528850057341855  0.7273109781041277  1.0000
  H   H8        1.0  0.27982039777399526  0.2528850059173346  0.7726890219243455  1.0000
  H   H9        1.0  0.22495272799725197  0.31975860909165715  0.3647286915021549  1.0000
  H   H10       1.0  0.7750472722830162  0.819758608908508  0.13527130907545318  1.0000
  H   H11       1.0  0.7750472722432282  0.6802413905420446  0.6352713088008857  1.0000
  H   H12       1.0  0.22495272795746407  0.1802413907251937  0.8647286912275876  1.0000
  H   H13       1.0  0.4101644873190401  0.9493755581014763  0.6361180836825416  1.0000
  H   H14       1.0  0.5898355128816523  0.44937555828462544  0.8638819163459316  1.0000
  H   H15       1.0  0.5898355129214401  0.050624441532225437  0.36388191662049907  1.0000
  H   H16       1.0  0.410164487358828  0.5506244413490763  0.13611808395710903  1.0000
  H   H17       1.0  0.5344779358863512  0.10959154120378645  0.6456812971514966  1.0000
  H   H18       1.0  0.4655220635761735  0.6095915410206373  0.85431870288075  1.0000
  H   H19       1.0  0.46552206397007057  0.8904084584299152  0.35431870234374385  1.0000
  H   H20       1.0  0.5344779359261391  0.39040845861306445  0.145681297426064  1.0000
  H   H21       1.0  0.5439111823565276  0.8305171816111899  0.7344233489236381  1.0000
  H   H22       1.0  0.4560888178441646  0.3305171817943391  0.765576651104835  1.0000
  H   H23       1.0  0.45608881749989416  0.16948281802251175  0.26557665057160224  1.0000
  H   H24       1.0  0.5439111823963155  0.6694828178393626  0.2344233491982056  1.0000
  C   C1        1.0  0.0448834614796649  0.5670783953703924  0.5382091371611032  1.0000
  C   C2        1.0  0.9551165379828597  0.06707839555354157  0.9617908628711431  1.0000
  C   C3        1.0  0.9551165387608151  0.43292160426330933  0.4617908631419374  1.0000
  C   C4        1.0  0.044883461135394445  0.9329216040801602  0.038209136627870434  1.0000
  C   C5        1.0  0.40208468608611764  0.37254861922782745  0.431951042080315  1.0000
  C   C6        1.0  0.597915313810092  0.8725486190446783  0.0680489576894928  1.0000
  C   C7        1.0  0.5979153137703042  0.6274513804058743  0.5680489574149253  1.0000
  C   C8        1.0  0.4020846864303882  0.12745138058902344  0.9319510426135479  1.0000
  C   C9        1.0  0.4977384515562623  0.6923014941070851  0.5719922707573281  1.0000
  C   C10       1.0  0.5022615486444298  0.19230149429023416  0.928007729271145  1.0000
  C   C11       1.0  0.5022615483001593  0.3076985055266167  0.4280077287379123  1.0000
  C   C12       1.0  0.4977384515960503  0.8076985053434675  0.07199227103189552  1.0000
  C   C13       1.0  0.2956549000807158  0.2284732369677275  0.3572154827396536  1.0000
  C   C14       1.0  0.7043451001995523  0.7284732367845783  0.1427845178379545  1.0000
  C   C15       1.0  0.7043451001597645  0.7715267626659742  0.6427845175633871  1.0000
  C   C16       1.0  0.295654900040928  0.27152676284912336  0.8572154824650863  1.0000
  C   C17       1.0  0.4957480850683696  0.906921516304027  0.6510096422421885  1.0000
  C   C18       1.0  0.5042519151323226  0.406921516487176  0.8489903577862846  1.0000
  C   C19       1.0  0.5042519147880521  0.09307848332967486  0.3489903572530519  1.0000
  C   C20       1.0  0.49574808510815754  0.5930784831465258  0.15100964251675594  1.0000
  N   N1        1.0  0.4019250885401451  0.5639363348677177  0.5043206640045345  1.0000
  N   N2        1.0  0.5980749109223795  0.06393633505086685  0.9956793360277119  1.0000
  N   N3        1.0  0.598074911700335  0.43606366476598396  0.49567933629850613  1.0000
  N   N4        1.0  0.40192508819587464  0.936063664582835  0.004320663471301685  1.0000
  I   I1        1.0  0.1998539612641532  0.5897184430800279  0.5357539647508069  1.0000
  I   I2        1.0  0.8001460381983715  0.08971844326317704  0.9642460352814395  1.0000
  I   I3        1.0  0.800146038976327  0.4102815565536738  0.4642460355522337  1.0000
  I   I4        1.0  0.1998539613039411  0.9102815563705247  0.03575396502537441  1.0000
  I   I5        1.0  0.03852602253468344  0.7850847073929543  0.668579519346079  1.0000
  I   I6        1.0  0.9614739776660087  0.2850847075761035  0.8314204806823943  1.0000
  I   I7        1.0  0.9614739777057968  0.21491529224074735  0.33142048095696164  1.0000
  I   I8        1.0  0.038526022190413  0.7149152920575982  0.1685795188128462  1.0000
