data_image0
_chemical_formula_structural       H16C40N8F16I8
_chemical_formula_sum              "H16 C40 N8 F16 I8"
_cell_length_a       13.663823223411526
_cell_length_b       5.812335947157363
_cell_length_c       16.34561664589811
_cell_angle_alpha    90.0
_cell_angle_beta     106.93525705038645
_cell_angle_gamma    90.0

_space_group_name_H-M_alt    "P 1"
_space_group_IT_number       1

loop_
  _space_group_symop_operation_xyz
  'x, y, z'

loop_
  _atom_site_type_symbol
  _atom_site_label
  _atom_site_symmetry_multiplicity
  _atom_site_fract_x
  _atom_site_fract_y
  _atom_site_fract_z
  _atom_site_occupancy
  H   H1        1.0  0.4564751837435417  0.29806055530002146  0.7954942353133839  1.0000
  H   H2        1.0  0.0435248163862386  0.7980605546843169  0.7045057646604345  1.0000
  H   H3        1.0  0.5435248162366508  0.7019394451890482  0.20450576450401486  1.0000
  H   H4        1.0  0.9564751835939539  0.20193944580475262  0.29549423515696427  1.0000
  H   H5        1.0  0.366126191676505  0.7165381316330928  0.6453416104392139  1.0000
  H   H6        1.0  0.13387380772096832  0.2165381305283187  0.8546583895333165  1.0000
  H   H7        1.0  0.6338738083036873  0.2834618688559768  0.35465838937818484  1.0000
  H   H8        1.0  0.8661261915269172  0.7834618682402722  0.14534161028279433  1.0000
  H   H9        1.0  0.5479323802469216  0.5612553867598526  0.697129590143265  1.0000
  H   H10       1.0  0.9520676193572135  0.06125538737555712  0.8028704095821889  1.0000
  H   H11       1.0  0.45206761973327086  0.43874461372921697  0.30287040967413364  1.0000
  H   H12       1.0  0.047932379890671936  0.9387446131135124  0.19712959023392176  1.0000
  H   H13       1.0  0.6793892045200666  0.8093522505870802  0.8006921616936016  1.0000
  H   H14       1.0  0.8206107953054422  0.30935225120278464  0.6993078386713689  1.0000
  H   H15       1.0  0.3206107949491926  0.19064774818151076  0.1993078387620257  1.0000
  H   H16       1.0  0.17938920467475017  0.6906477492862848  0.3006921611460297  1.0000
  C   C1        1.0  0.8991759321378678  0.42109611045401174  0.957302663775416  1.0000
  C   C2        1.0  0.6008240674662673  0.9210961098383071  0.5426973359500381  1.0000
  C   C3        1.0  0.10082406784232459  0.5789038900350578  0.04269733604198272  1.0000
  C   C4        1.0  0.3991759325139251  0.07890389065076238  0.4573026638673606  1.0000
  C   C5        1.0  0.9371026931263822  0.6260022584860218  0.9342809640781559  1.0000
  C   C6        1.0  0.5628973064777529  0.12600225738124765  0.5657190356472982  1.0000
  C   C7        1.0  0.06289730685381013  0.37399774200304775  0.06571903573924273  1.0000
  C   C8        1.0  0.43710269350243947  0.8739977413873432  0.43428096417010054  1.0000
  C   C9        1.0  0.9644043113605206  0.29673758806792944  0.024227064806472853  1.0000
  C   C10       1.0  0.535595688470084  0.7967375874522248  0.4757729348545062  1.0000
  C   C11       1.0  0.03559568861967175  0.7032624124211402  0.9757729350109258  1.0000
  C   C12       1.0  0.46440431151010836  0.20326241131636602  0.5242270649628924  1.0000
  C   C13       1.0  0.47716814151724685  0.13352010397464192  0.7729226780019556  1.0000
  C   C14       1.0  0.022831858612533357  0.6335201033589374  0.7270773219718628  1.0000
  C   C15       1.0  0.5228318584629457  0.8664798965144276  0.2270773218154432  1.0000
  C   C16       1.0  0.9771681413676591  0.3664798971301322  0.2729226778455359  1.0000
  C   C17       1.0  0.4276530075084984  0.8108705523645807  0.6906560964604981  1.0000
  C   C18       1.0  0.07234699262128176  0.3108705529802853  0.8093439035133202  1.0000
  C   C19       1.0  0.572346992471694  0.18912944812448879  0.3093439033569006  1.0000
  C   C20       1.0  0.9276530073589107  0.6891294475087842  0.1906560963040785  1.0000
  C   C21       1.0  0.5270568130528733  0.7257249509232123  0.7189736376157851  1.0000
  C   C22       1.0  0.9729431865512618  0.22572494981843813  0.781026362109669  1.0000
  C   C23       1.0  0.4729431869273191  0.2742750495658573  0.28102636220161364  1.0000
  C   C24       1.0  0.027056813428930498  0.7742750489501526  0.21897363770772965  1.0000
  C   C25       1.0  0.5996171507318041  0.8626183337616798  0.7757463848509637  1.0000
  C   C26       1.0  0.9003828498260117  0.3626183343773844  0.7242536155152948  1.0000
  C   C27       1.0  0.4003828494697621  0.13738166500691104  0.2242536156059515  1.0000
  C   C28       1.0  0.09961715037555435  0.6373816661116851  0.2757463849416204  1.0000
  C   C29       1.0  0.010530118714232359  0.7018312064351772  0.4592209848865465  1.0000
  C   C30       1.0  0.48946988164201727  0.20183120705088162  0.04077901502279681  1.0000
  C   C31       1.0  0.9894698812659599  0.2981687923334138  0.5407790149308523  1.0000
  C   C32       1.0  0.5105301183381751  0.7981687934381878  0.9592209847946018  1.0000
  C   C33       1.0  0.0964975463888167  0.5915208379655823  0.5119000132567969  1.0000
  C   C34       1.0  0.4035024537409635  0.09152083858128683  0.9880999867170214  1.0000
  C   C35       1.0  0.9035024538127493  0.40847916252348726  0.4880999872001182  1.0000
  C   C36       1.0  0.5964975462392289  0.9084791619077828  0.011900013100377327  1.0000
  C   C37       1.0  0.08754954885571041  0.38760024033053464  0.5542529701775942  1.0000
  C   C38       1.0  0.4124504512740698  0.8876002414353088  0.9457470297962242  1.0000
  C   C39       1.0  0.9124504511244821  0.6123997584380563  0.4457470296398045  1.0000
  C   C40       1.0  0.5875495487061225  0.11239975905376078  0.054252970021174574  1.0000
  N   N1        1.0  0.574984229761286  0.06720946166077205  0.8024842227709146  1.0000
  N   N2        1.0  0.9250157705751559  0.5672094610450675  0.6975157769558272  1.0000
  N   N3        1.0  0.4250157702189064  0.9327905388282975  0.19751577704648401  1.0000
  N   N4        1.0  0.07498422940503638  0.4327905377235234  0.3024842228615714  1.0000
  N   N5        1.0  0.40266779788730206  0.014720878279901577  0.7179953534552826  1.0000
  N   N6        1.0  0.09733220151017132  0.514720877664197  0.7820046465172478  1.0000
  N   N7        1.0  0.5973322020928903  0.9852791222091679  0.282004646362116  1.0000
  N   N8        1.0  0.9026677979590878  0.4852791228248725  0.2179953539383796  1.0000
  F   F1        1.0  0.8779051230112193  0.7549763279161665  0.8690554844108868  1.0000
  F   F2        1.0  0.6220948775465964  0.2549763285318711  0.6309445159553716  1.0000
  F   F3        1.0  0.12209487719034687  0.24502367085242438  0.13094451604602836  1.0000
  F   F4        1.0  0.3779051226549696  0.7450236719571984  0.3690554845015436  1.0000
  F   F5        1.0  0.9331592903984959  0.094588691190309  0.05001459958167916  1.0000
  F   F6        1.0  0.5668407094321087  0.5945886905746044  0.44998540007929994  1.0000
  F   F7        1.0  0.06684070958169654  0.9054113092987606  0.9499854002357195  1.0000
  F   F8        1.0  0.4331592905480836  0.4054113099144651  0.5500145997380987  1.0000
  F   F9        1.0  0.18984090354756483  0.6856250062333342  0.5208315131220402  1.0000
  F   F10       1.0  0.3101590965822154  0.1856250068490388  0.979168486851778  1.0000
  F   F11       1.0  0.8101590964326275  0.31437499253525664  0.47916848669535844  1.0000
  F   F12       1.0  0.689840903397977  0.8143749936400306  0.020831512965620674  1.0000
  F   F13       1.0  0.02429049134385926  0.9002429655772158  0.4198808972669381  1.0000
  F   F14       1.0  0.47570950850145716  0.4002429661929203  0.08011910328063379  1.0000
  F   F15       1.0  0.9757095088577068  0.09975703491185382  0.5801191031899772  1.0000
  F   F16       1.0  0.524290490967802  0.5997570342961492  0.9198808971749936  1.0000
  I   I1        1.0  0.7525684529079135  0.295985258877092  0.8915380729184319  1.0000
  I   I2        1.0  0.7474315469175954  0.7959852582613874  0.6084619274465386  1.0000
  I   I3        1.0  0.24743154707227888  0.7040147416119775  0.10846192689896676  1.0000
  I   I4        1.0  0.25256845328397076  0.2040147422276821  0.3915380730103765  1.0000
  I   I5        1.0  0.21819314588499025  0.2213592575682491  0.6333654296645272  1.0000
  I   I6        1.0  0.28180685424478996  0.7213592569525445  0.866634570309291  1.0000
  I   I7        1.0  0.7818068543165758  0.7786407429208204  0.3666345707923879  1.0000
  I   I8        1.0  0.7181931457354026  0.2786407418160463  0.13336542950810773  1.0000
