data_image0
_chemical_formula_structural       H14B2C46N4F30
_chemical_formula_sum              "H14 B2 C46 N4 F30"
_cell_length_a       10.51519452032824
_cell_length_b       11.44483262183425
_cell_length_c       11.590904849515491
_cell_angle_alpha    96.56462306460583
_cell_angle_beta     110.7364251252768
_cell_angle_gamma    115.9924241638247

_space_group_name_H-M_alt    "P 1"
_space_group_IT_number       1

loop_
  _space_group_symop_operation_xyz
  'x, y, z'

loop_
  _atom_site_type_symbol
  _atom_site_label
  _atom_site_symmetry_multiplicity
  _atom_site_fract_x
  _atom_site_fract_y
  _atom_site_fract_z
  _atom_site_occupancy
  H   H1        1.0  0.6348598022848918  0.6491021841503526  0.6959693064772259  1.0000
  H   H2        1.0  0.36514019754807403  0.35089781529129427  0.30403069345156153  1.0000
  H   H3        1.0  0.6297146757212572  0.6317249626462494  0.8336959386939976  1.0000
  H   H4        1.0  0.37028532316169094  0.36827503679535106  0.16630406123736582  1.0000
  H   H5        1.0  0.46703235925121933  0.5237666270124216  0.6928705670393647  1.0000
  H   H6        1.0  0.5329676405817465  0.47623337242922514  0.30712943288942274  1.0000
  H   H7        1.0  0.16788076546634498  0.3770186086130303  0.4629923760236693  1.0000
  H   H8        1.0  0.832119234366621  0.6229813908286165  0.5370076239051181  1.0000
  H   H9        1.0  0.9547879837584795  0.13553840387215524  0.36634699523392855  1.0000
  H   H10       1.0  0.04521201607448644  0.8644615955694916  0.6336530046948589  1.0000
  H   H11       1.0  0.21028334270137414  0.06526530679916766  0.7105432865904839  1.0000
  H   H12       1.0  0.7897166571315916  0.934734692642479  0.2894567133383035  1.0000
  H   H13       1.0  0.4107595943179549  0.31016839428623133  0.7922719296054478  1.0000
  H   H14       1.0  0.589240405515011  0.6898316051554154  0.2077280703233396  1.0000
  B   B1        1.0  0.500314878379066  0.7314286267920891  0.750161468666394  1.0000
  B   B2        1.0  0.49968512145389987  0.2685713726495577  0.24983853126239344  1.0000
  C   C1        1.0  0.35641239089537835  0.6534169499617155  0.789322375419666  1.0000
  C   C2        1.0  0.6435876094007092  0.3465830504522177  0.210677624509732  1.0000
  C   C3        1.0  0.19746108009915223  0.6127302708529276  0.7176024718552386  1.0000
  C   C4        1.0  0.8025389202730814  0.38726972891711586  0.2823975290474563  1.0000
  C   C5        1.0  0.07936288766638872  0.5396376092188702  0.7533368908618002  1.0000
  C   C6        1.0  0.9206371126296989  0.4603623911950631  0.2466631090675979  1.0000
  C   C7        1.0  0.11584560400037311  0.49851337875800544  0.8628121634584988  1.0000
  C   C8        1.0  0.8841543968349824  0.5014866219843244  0.1371878374448069  1.0000
  C   C9        1.0  0.27273254209920633  0.535578119076381  0.9372642770773766  1.0000
  C   C10       1.0  0.7272674581968814  0.46442188133755224  0.0627357228520215  1.0000
  C   C11       1.0  0.3868989022154939  0.6115835032950275  0.8996532698509998  1.0000
  C   C12       1.0  0.6131010976174721  0.3884164961466192  0.10034673007778762  1.0000
  C   C13       1.0  0.6531765698981935  0.8779460706775702  0.8583181425669077  1.0000
  C   C14       1.0  0.3468234299347724  0.12205392876407653  0.14168185736187966  1.0000
  C   C15       1.0  0.66384729708036  0.949898321834444  0.9703803609515035  1.0000
  C   C16       1.0  0.3361527027526056  0.050101677607202626  0.029619638977283883  1.0000
  C   C17       1.0  0.7957910568301301  0.0773046828658941  0.05455383876015209  1.0000
  C   C18       1.0  0.20420894346595775  0.9226953175480392  0.9454461611692461  1.0000
  C   C19       1.0  0.9241031477073022  0.13962670870569072  0.027427726007721955  1.0000
  C   C20       1.0  0.07589685212566355  0.860373290735956  0.9725722739210654  1.0000
  C   C21       1.0  0.9193137881251063  0.07225201053137945  0.9166914312307486  1.0000
  C   C22       1.0  0.08068621170785964  0.9277479889102674  0.08330856869803879  1.0000
  C   C23       1.0  0.786217213263349  0.9440772329589917  0.8367155292408031  1.0000
  C   C24       1.0  0.21378278703273856  0.05592276745494151  0.16328447068859495  1.0000
  C   C25       1.0  0.4398481900560629  0.7601267781095444  0.6116994006201901  1.0000
  C   C26       1.0  0.5601518092900071  0.23987322230434258  0.38830059931178396  1.0000
  C   C27       1.0  0.3970503320745031  0.8598087282490184  0.603292034996552  1.0000
  C   C28       1.0  0.6029496682215845  0.14019127216491473  0.396707964932846  1.0000
  C   C29       1.0  0.338091096317763  0.8871205696044145  0.4883627517036627  1.0000
  C   C30       1.0  0.6619089030283071  0.11287943080947259  0.5116372482283114  1.0000
  C   C31       1.0  0.32591552489561765  0.8165302613504163  0.37495768420824427  1.0000
  C   C32       1.0  0.6740844749373482  0.1834697380912305  0.6250423157205431  1.0000
  C   C33       1.0  0.3690986099409162  0.7180596209889207  0.37856079310366614  1.0000
  C   C34       1.0  0.6309013904313175  0.2819403787811226  0.6214392077990288  1.0000
  C   C35       1.0  0.42224798361586735  0.6914062548219309  0.49504549012900473  1.0000
  C   C36       1.0  0.5777520152670808  0.3085937446196697  0.5049545098023587  1.0000
  C   C37       1.0  0.1735649174116036  0.3045661007253354  0.5151993335934945  1.0000
  C   C38       1.0  0.8264350824213623  0.6954338987163114  0.48480066633529295  1.0000
  C   C39       1.0  0.05316842850842587  0.16732441510591312  0.46096617182945226  1.0000
  C   C40       1.0  0.9468315717876619  0.8326755853080202  0.5390338280999457  1.0000
  C   C41       1.0  0.06153522624786948  0.07407364846276046  0.528020983434914  1.0000
  C   C42       1.0  0.9384647740482183  0.9259263519511728  0.471979016494484  1.0000
  C   C43       1.0  0.19310509627525146  0.128755769207827  0.650772670014655  1.0000
  C   C44       1.0  0.8068949040208362  0.8712442312061062  0.34922732991474303  1.0000
  C   C45       1.0  0.3077580284796492  0.26749706976885723  0.6977151043240766  1.0000
  C   C46       1.0  0.6922419713533167  0.7325029296727895  0.30228489560471083  1.0000
  N   N1        1.0  0.5641363660411212  0.627237559304159  0.7417680929664031  1.0000
  N   N2        1.0  0.43586363425496655  0.37276244110977425  0.25823190696299503  1.0000
  N   N3        1.0  0.3007322339304762  0.35519700537664384  0.6313953217404337  1.0000
  N   N4        1.0  0.6992677659024896  0.644802994065003  0.36860467818835374  1.0000
  F   F1        1.0  0.14519072700344474  0.6431197770465861  0.6065871922899546  1.0000
  F   F2        1.0  0.8548092728295211  0.3568802223950607  0.39341280763883274  1.0000
  F   F3        1.0  0.9293784682489752  0.5098699061924565  0.6819734323153548  1.0000
  F   F4        1.0  0.0706215315839908  0.4901300932491904  0.3180265676134326  1.0000
  F   F5        1.0  0.0027747525166559304  0.42479649959194193  0.8967408706735264  1.0000
  F   F6        1.0  0.9972252473163098  0.5752034998497049  0.10325912925526087  1.0000
  F   F7        1.0  0.31137795992303763  0.498354872967089  0.04545716038048587  1.0000
  F   F8        1.0  0.6886220403730501  0.5016451274468442  0.9545428395489123  1.0000
  F   F9        1.0  0.539111325776336  0.6468415778559282  0.9787131406524282  1.0000
  F   F10       1.0  0.4608886745197517  0.35315842255800506  0.021286859276969897  1.0000
  F   F11       1.0  0.5442038439388611  0.8983854943534797  0.004517753059347606  1.0000
  F   F12       1.0  0.4557961558941047  0.10161450508816687  0.9954822468694398  1.0000
  F   F13       1.0  0.8014932908784956  0.1403471414515641  0.1640303717843046  1.0000
  F   F14       1.0  0.19850670941759213  0.8596528589623692  0.8359696281450936  1.0000
  F   F15       1.0  0.05238422349013579  0.2631907252594037  0.10862487938504911  1.0000
  F   F16       1.0  0.9476157768059519  0.7368092751545295  0.891375120544349  1.0000
  F   F17       1.0  0.04278330556913454  0.13173408738029074  0.88862445704874  1.0000
  F   F18       1.0  0.9572166937769356  0.8682659130335963  0.11137554288323404  1.0000
  F   F19       1.0  0.7895565908994333  0.8827487723682654  0.7301432295349589  1.0000
  F   F20       1.0  0.21044340939665435  0.11725122804566777  0.26985677039443917  1.0000
  F   F21       1.0  0.4056348152338197  0.9315982466264566  0.7105611442302793  1.0000
  F   F22       1.0  0.5943651851384137  0.06840175314358668  0.28943885667241553  1.0000
  F   F23       1.0  0.292619964491138  0.9809553969946817  0.48464554312032204  1.0000
  F   F24       1.0  0.7073800358049498  0.019044603419251585  0.515354456809076  1.0000
  F   F25       1.0  0.27279743532551814  0.8435136415577084  0.2632174317529351  1.0000
  F   F26       1.0  0.7272025649705696  0.15648635885622497  0.7367825681764629  1.0000
  F   F27       1.0  0.35328963166016597  0.6456357286007676  0.26875715662233435  1.0000
  F   F28       1.0  0.6467103681727998  0.3543642708408792  0.7312428433064531  1.0000
  F   F29       1.0  0.45269315172215707  0.5868234276488322  0.4874113585338744  1.0000
  F   F30       1.0  0.5473068486500765  0.4131765721212111  0.5125886423688204  1.0000
