data_image0
_chemical_formula_structural       H32C32N8O8
_chemical_formula_sum              "H32 C32 N8 O8"
_cell_length_a       7.406694862358059
_cell_length_b       9.025614792089712
_cell_length_c       12.132985721625829
_cell_angle_alpha    76.41903442509086
_cell_angle_beta     72.49815064816553
_cell_angle_gamma    81.09322870847286

_space_group_name_H-M_alt    "P 1"
_space_group_IT_number       1

loop_
  _space_group_symop_operation_xyz
  'x, y, z'

loop_
  _atom_site_type_symbol
  _atom_site_label
  _atom_site_symmetry_multiplicity
  _atom_site_fract_x
  _atom_site_fract_y
  _atom_site_fract_z
  _atom_site_occupancy
  H   H1        1.0  0.2822935859278673  0.3748033585373509  0.09865651505571135  1.0000
  H   H2        1.0  0.7177064145089344  0.625196641206068  0.9013434849426807  1.0000
  H   H3        1.0  0.7946188324057909  0.16008625799123005  0.9403272631098493  1.0000
  H   H4        1.0  0.2053811680310106  0.8399137417521889  0.05967273688854292  1.0000
  H   H5        1.0  0.6136388795671748  0.3839531620076432  0.11616269576244159  1.0000
  H   H6        1.0  0.3863611194549008  0.6160468377278396  0.8838373044940293  1.0000
  H   H7        1.0  0.693630964982729  0.5089837707560921  0.255299613970167  1.0000
  H   H8        1.0  0.30636903403934673  0.4910162289793905  0.7447003862863041  1.0000
  H   H9        1.0  0.42828623348179556  0.6386733146235882  0.39687266110045544  1.0000
  H   H10       1.0  0.57171376554028  0.3613266851118946  0.6031273391560156  1.0000
  H   H11       1.0  0.027155613286823376  0.019169249555138837  0.7924113721832337  1.0000
  H   H12       1.0  0.9728443871499782  0.98083075018828  0.20758862781515847  1.0000
  H   H13       1.0  0.45675436304699607  0.15162157005034446  0.9208749535947902  1.0000
  H   H14       1.0  0.5432456373898056  0.8483784296930745  0.0791250464036018  1.0000
  H   H15       1.0  0.03916330353593732  0.5076300536712018  0.24028249794042103  1.0000
  H   H16       1.0  0.9608366967618546  0.4923699472165731  0.7597175018980513  1.0000
  H   H17       1.0  0.30406103349887004  0.8100561631813269  0.5601080501473531  1.0000
  H   H18       1.0  0.6959389655232057  0.18994383655415584  0.43989195010911786  1.0000
  H   H19       1.0  0.22577657016335245  0.8229062009441436  0.7124408234255043  1.0000
  H   H20       1.0  0.7742234302734492  0.17709379879927548  0.28755917657288765  1.0000
  H   H21       1.0  0.23646206888081847  0.9928760473651315  0.6012381146721977  1.0000
  H   H22       1.0  0.7635379315559832  0.0071239523782876514  0.3987618853261944  1.0000
  H   H23       1.0  0.625075069420069  0.8814314236975844  0.6497117746894645  1.0000
  H   H24       1.0  0.3749249296020067  0.11856857603789828  0.35028822556700656  1.0000
  H   H25       1.0  0.36608737019504917  0.017703960955122028  0.7907564513812683  1.0000
  H   H26       1.0  0.6339126288270264  0.9822960387803608  0.20924354887520275  1.0000
  H   H27       1.0  0.7542712132652022  0.7324292934280935  0.46280029407413315  1.0000
  H   H28       1.0  0.24572878575687346  0.2675707063073893  0.5371997061823378  1.0000
  H   H29       1.0  0.8126450098789069  0.5580783458351748  0.4090942999912927  1.0000
  H   H30       1.0  0.18735499056066357  0.44192165392834765  0.5909056991790123  1.0000
  H   H31       1.0  0.8522818535744042  0.7337509989050603  0.3075889009702478  1.0000
  H   H32       1.0  0.14771814686239748  0.26624900083835856  0.6924110990281441  1.0000
  C   C1        1.0  0.06779160900129477  0.31657864543210296  0.05189608123217385  1.0000
  C   C2        1.0  0.9322083900207809  0.6834213543033797  0.9481039190242972  1.0000
  C   C3        1.0  0.01056548474064566  0.2359111536630168  0.9695524059182598  1.0000
  C   C4        1.0  0.9894345156961559  0.7640888460804021  0.030447594080132236  1.0000
  C   C5        1.0  0.502769648924334  0.44140258932440835  0.17823530339149218  1.0000
  C   C6        1.0  0.49723035151246764  0.5585974104190105  0.8217646966068998  1.0000
  C   C7        1.0  0.545795514992013  0.5101440549908139  0.2577566153760923  1.0000
  C   C8        1.0  0.45420448544478875  0.4898559447526049  0.7422433846222999  1.0000
  C   C9        1.0  0.39965448920808144  0.5814709635020274  0.33497930811697707  1.0000
  C   C10       1.0  0.6003455112287202  0.4185290362413915  0.665020691881415  1.0000
  C   C11       1.0  0.2103743507797607  0.5838973506586336  0.33237891111837303  1.0000
  C   C12       1.0  0.7896256482423148  0.41610264907684913  0.667621089138098  1.0000
  C   C13       1.0  0.051494780417515235  0.6613262791103263  0.4113929933631151  1.0000
  C   C14       1.0  0.9485052200192864  0.3386737206330926  0.588607006635277  1.0000
  C   C15       1.0  0.00443332359646881  0.8615761015832566  0.6270700930365825  1.0000
  C   C16       1.0  0.9955666752865971  0.13842389929658216  0.37292990705996887  1.0000
  C   C17       1.0  0.8485216743102343  0.938661066819951  0.7078741662568507  1.0000
  C   C18       1.0  0.15147832598755753  0.06133893406782402  0.2921258335816217  1.0000
  C   C19       1.0  0.8842780313524217  0.014016147103620147  0.7867053993248168  1.0000
  C   C20       1.0  0.11572196908437997  0.9859838526397987  0.21329460067357528  1.0000
  C   C21       1.0  0.5639629889120655  0.08809722952124555  0.8612692910619176  1.0000
  C   C22       1.0  0.43603701011001  0.9119027702142372  0.1387307091945534  1.0000
  C   C23       1.0  0.17961226139547282  0.5125174326597604  0.24977007656884223  1.0000
  C   C24       1.0  0.8203877376266027  0.4874825670757225  0.7502299236876288  1.0000
  C   C25       1.0  0.2055482810747023  0.8722830036397402  0.6245187255362619  1.0000
  C   C26       1.0  0.7944517179473733  0.12771699609574244  0.37548127472020904  1.0000
  C   C27       1.0  0.6574878620793194  0.9397974684158776  0.7096013427293522  1.0000
  C   C28       1.0  0.34251213821847243  0.0602025324718975  0.2903986571091201  1.0000
  C   C29       1.0  0.5150929547625093  0.014354244900323238  0.786697695495479  1.0000
  C   C30       1.0  0.4849070456742924  0.9856457548430956  0.21330230450291304  1.0000
  C   C31       1.0  0.8555281602867151  0.6735517327075783  0.3971556715062913  1.0000
  C   C32       1.0  0.1444718400110767  0.32644826818019684  0.602844328332181  1.0000
  N   N1        1.0  0.09850050910042232  0.7151518520983486  0.4889303141140144  1.0000
  N   N2        1.0  0.9014994897826436  0.28484814878149  0.5110696859825369  1.0000
  N   N3        1.0  0.9522891385156387  0.7887782121685356  0.5621703993013555  1.0000
  N   N4        1.0  0.047710860367427194  0.2112217887113032  0.4378296007951959  1.0000
  N   N5        1.0  0.7456863474735175  0.08612356835596656  0.8608839737587549  1.0000
  N   N6        1.0  0.2543136529632841  0.9138764313874523  0.13911602623963715  1.0000
  N   N7        1.0  0.32252489765540143  0.44372350323894105  0.17550918065683474  1.0000
  N   N8        1.0  0.6774751027814001  0.5562764965044779  0.8244908193415572  1.0000
  O   O1        1.0  0.2509020937103599  0.31394327983536646  0.032704348690199336  1.0000
  O   O2        1.0  0.7490979053144847  0.6860567199202197  0.9672956507381845  1.0000
  O   O3        1.0  0.828504437012012  0.21664628954763268  0.002426390819847507  1.0000
  O   O4        1.0  0.17149556328577983  0.7833537113401423  0.9975736090186248  1.0000
  O   O5        1.0  0.9442791786300584  0.3750713494764404  0.12761753747951562  1.0000
  O   O6        1.0  0.055720821806743336  0.6249286502669786  0.8723824625188764  1.0000
  O   O7        1.0  0.12836330561738193  0.19619828659323954  0.8829117150551992  1.0000
  O   O8        1.0  0.8716366946804099  0.8038017142945355  0.11708828478327313  1.0000
