data_image0
_chemical_formula_structural       H28C42N4O12
_chemical_formula_sum              "H28 C42 N4 O12"
_cell_length_a       7.590022355761806
_cell_length_b       9.40910898811974
_cell_length_c       12.59395813598644
_cell_angle_alpha    84.63497874725671
_cell_angle_beta     86.22031852073063
_cell_angle_gamma    72.5761642785987

_space_group_name_H-M_alt    "P 1"
_space_group_IT_number       1

loop_
  _space_group_symop_operation_xyz
  'x, y, z'

loop_
  _atom_site_type_symbol
  _atom_site_label
  _atom_site_symmetry_multiplicity
  _atom_site_fract_x
  _atom_site_fract_y
  _atom_site_fract_z
  _atom_site_occupancy
  H   H1        1.0  0.01714030053289889  0.38384967525775265  0.4726753471019355  1.0000
  H   H2        1.0  0.9828596994471823  0.6161503240358054  0.527324652957048  1.0000
  H   H3        1.0  0.28429343691299896  0.47711921358556575  0.4070511403828428  1.0000
  H   H4        1.0  0.715706563067082  0.5228807857079922  0.5929488596761406  1.0000
  H   H5        1.0  0.6047264068135942  0.3271142660094131  0.4633859028151335  1.0000
  H   H6        1.0  0.3952735931664868  0.6728857332841449  0.5366140972438499  1.0000
  H   H7        1.0  0.6515325977717349  0.10463621679957971  0.5841903107585827  1.0000
  H   H8        1.0  0.3484674017862983  0.8953637836111763  0.4158096892362525  1.0000
  H   H9        1.0  0.6231578582810744  0.9950285930203191  0.7388899491287543  1.0000
  H   H10       1.0  0.3768421412769588  0.004971407390437294  0.2611100508660809  1.0000
  H   H11       1.0  0.6405495579255535  0.8511074389263434  0.6533479237453993  1.0000
  H   H12       1.0  0.35945044294842804  0.14889256149632576  0.34665207619221383  1.0000
  H   H13       1.0  0.048103816935945024  0.030033240112696393  0.6402767115878601  1.0000
  H   H14       1.0  0.951896183044136  0.9699667591808617  0.3597232884711233  1.0000
  H   H15       1.0  0.6635081893441618  0.6548985128928044  0.9072796705768885  1.0000
  H   H16       1.0  0.33649181195186756  0.34510148641266675  0.09272032942487275  1.0000
  H   H17       1.0  0.9924584629408186  0.3697615072738327  0.7509818209854531  1.0000
  H   H18       1.0  0.007541537039262292  0.6302384920197253  0.24901817907353035  1.0000
  H   H19       1.0  0.19485917298466102  0.11053848945472523  0.8077230848581419  1.0000
  H   H20       1.0  0.8051408269954201  0.8894615098388328  0.19227691520084153  1.0000
  H   H21       1.0  0.19474949813311127  0.02419138022112355  0.0013024366524557554  1.0000
  H   H22       1.0  0.8052505014249219  0.9758086201896325  0.9986975633423795  1.0000
  H   H23       1.0  0.6086941160483846  0.5042975942333602  0.3389017361186114  1.0000
  H   H24       1.0  0.3913058839316966  0.4957024050601978  0.6610982639403719  1.0000
  H   H25       1.0  0.38646181643041555  0.7347487866541559  0.2526916289957368  1.0000
  H   H26       1.0  0.6135381831276179  0.2652512137566002  0.7473083709990984  1.0000
  H   H27       1.0  0.42240215508820483  0.7874671384440507  0.053138005748755636  1.0000
  H   H28       1.0  0.5775978444698282  0.21253286196670546  0.9468619942460796  1.0000
  C   C1        1.0  0.3609657742054902  0.11651432235077817  0.6001474562652667  1.0000
  C   C2        1.0  0.6390342253525432  0.8834856780599778  0.39985254372956847  1.0000
  C   C3        1.0  0.1806058545449465  0.19679770497103127  0.5677625975719448  1.0000
  C   C4        1.0  0.8193941463290351  0.8032022954516379  0.43223740236566816  1.0000
  C   C5        1.0  0.15659452409333247  0.3259822523689114  0.49796633327142614  1.0000
  C   C6        1.0  0.843405476780649  0.6740177480537577  0.5020336666661869  1.0000
  C   C7        1.0  0.30604800924284964  0.375685021942874  0.460331340354933  1.0000
  C   C8        1.0  0.6939519920531798  0.624314977362597  0.5396686596468283  1.0000
  C   C9        1.0  0.4835865696988268  0.29332787828653045  0.49195806238241135  1.0000
  C   C10       1.0  0.5164134302812543  0.7066721210070276  0.508041937676572  1.0000
  C   C11       1.0  0.5119311037073995  0.16401946579903112  0.5605354917819556  1.0000
  C   C12       1.0  0.48806889716658197  0.8359805346236381  0.43946450815565746  1.0000
  C   C13       1.0  0.5507598324863173  0.918994326026174  0.713449802052782  1.0000
  C   C14       1.0  0.4492401688097121  0.08100567327929695  0.2865501979489793  1.0000
  C   C15       1.0  0.5227823603105326  0.820771324834572  0.8116560070696224  1.0000
  C   C16       1.0  0.4772176405634489  0.17922867558809705  0.18834399286799075  1.0000
  C   C17       1.0  0.020465199632719398  0.14759788223523648  0.6071638189051239  1.0000
  C   C18       1.0  0.9795347999253139  0.8524021181755197  0.39283618108971124  1.0000
  C   C19       1.0  0.9948498987573107  0.3256653657436103  0.8344379782060128  1.0000
  C   C20       1.0  0.005150101222770607  0.6743346335499477  0.1655620218529706  1.0000
  C   C21       1.0  0.10847747669521048  0.18272927615119572  0.8654508105733502  1.0000
  C   C22       1.0  0.8915225228628229  0.8172707242595603  0.1345491894214851  1.0000
  C   C23       1.0  0.10778141077252401  0.13394849457493785  0.9728975643118482  1.0000
  C   C24       1.0  0.8922185887855091  0.8660515058358182  0.027102435682987095  1.0000
  C   C25       1.0  0.992828712677821  0.22734828247965208  0.04560250083588134  1.0000
  C   C26       1.0  0.00717128688021216  0.772651717931104  0.9543974991589539  1.0000
  C   C27       1.0  0.8800981415478064  0.36790235549672606  0.00606599909682472  1.0000
  C   C28       1.0  0.11990185801022665  0.6320976449140301  0.9939340008980105  1.0000
  C   C29       1.0  0.9909642549987409  0.1789434003433263  0.16011278391844136  1.0000
  C   C30       1.0  0.009035744559292395  0.8210566000674298  0.8398872160763938  1.0000
  C   C31       1.0  0.8682864468821486  0.2911607198454596  0.23663137179339547  1.0000
  C   C32       1.0  0.13171355267588467  0.7088392805652964  0.7633686282014398  1.0000
  C   C33       1.0  0.7426971100707849  0.4319088919492673  0.18883052252258142  1.0000
  C   C34       1.0  0.2573028894872484  0.5680911084614889  0.8111694774722538  1.0000
  C   C35       1.0  0.7495839815224518  0.46877896481304576  0.07785044006859357  1.0000
  C   C36       1.0  0.2504160197735777  0.5312210344924254  0.9221495599331677  1.0000
  C   C37       1.0  0.6134285333255667  0.5303716472681681  0.2528846248475283  1.0000
  C   C38       1.0  0.3865714666545145  0.4696283520253898  0.747115375211455  1.0000
  C   C39       1.0  0.4933926148184694  0.659192922085801  0.20548362490437852  1.0000
  C   C40       1.0  0.5066073847395638  0.3408070783249551  0.7945163750904567  1.0000
  C   C41       1.0  0.5119177254187495  0.6880708362450657  0.09520398953411592  1.0000
  C   C42       1.0  0.4880822741392838  0.31192916416569044  0.9047960104607193  1.0000
  N   N1        1.0  0.8827742745473545  0.4159295002997291  0.9025140166062483  1.0000
  N   N2        1.0  0.11722572501067867  0.584070500111027  0.09748598338858684  1.0000
  N   N3        1.0  0.6374397585844713  0.5965589689962855  0.03304746383983502  1.0000
  N   N4        1.0  0.36256024097356204  0.4034410314144706  0.9669525361550001  1.0000
  O   O1        1.0  0.3738045697139375  0.9982883874090541  0.6736239900790095  1.0000
  O   O2        1.0  0.6261954302661435  0.001711611884503884  0.32637600997997396  1.0000
  O   O3        1.0  0.6770235821643722  0.7143655229361086  0.8342547301444942  1.0000
  O   O4        1.0  0.32297641870960936  0.2856344774865607  0.16574526979311882  1.0000
  O   O5        1.0  0.3760939241365829  0.8422021511731526  0.8647746807428872  1.0000
  O   O6        1.0  0.6239060754214504  0.15779784923760357  0.13522531925194797  1.0000
  O   O7        1.0  0.8602758775933091  0.23163783611329458  0.6061478585683786  1.0000
  O   O8        1.0  0.13972412196472417  0.7683621642974614  0.3938521414264565  1.0000
  O   O9        1.0  0.08302019499072041  0.05525339326485608  0.1965711789574448  1.0000
  O   O10       1.0  0.916979805883261  0.9447466071578131  0.8034288209801682  1.0000
  O   O11       1.0  0.8782951192892756  0.2606843537530872  0.333330383762441  1.0000
  O   O12       1.0  0.12170488069080543  0.7393156455404708  0.6666696162965425  1.0000
