data_image0
_chemical_formula_structural       H52C58N10O12S2Cl6
_chemical_formula_sum              "H52 C58 N10 O12 S2 Cl6"
_cell_length_a       7.055296017052956
_cell_length_b       13.636206619232448
_cell_length_c       15.703894987781819
_cell_angle_alpha    71.61216876831664
_cell_angle_beta     86.22123554348433
_cell_angle_gamma    84.16696202476716

_space_group_name_H-M_alt    "P 1"
_space_group_IT_number       1

loop_
  _space_group_symop_operation_xyz
  'x, y, z'

loop_
  _atom_site_type_symbol
  _atom_site_label
  _atom_site_symmetry_multiplicity
  _atom_site_fract_x
  _atom_site_fract_y
  _atom_site_fract_z
  _atom_site_occupancy
  H   H1        1.0  0.48139187625983326  0.5117794192215244  0.2516370923799002  1.0000
  H   H2        1.0  0.518608124692112  0.48822058070432867  0.7483629076439776  1.0000
  H   H3        1.0  0.2055487236952528  0.6481630969244071  0.4278624859507371  1.0000
  H   H4        1.0  0.7944512758402259  0.35183690300100223  0.5721375140678855  1.0000
  H   H5        1.0  0.4422884291838094  0.7624264065920743  0.14248970695610264  1.0000
  H   H6        1.0  0.5577115703516695  0.237573593333335  0.8575102930625199  1.0000
  H   H7        1.0  0.3770503127674207  0.9563461377391487  0.10008525235507182  1.0000
  H   H8        1.0  0.6229496867680582  0.043653862186260634  0.8999147476635507  1.0000
  H   H9        1.0  0.21435397653396707  0.030599631318966664  0.21472655766173523  1.0000
  H   H10       1.0  0.7856460228520785  0.9694003693430001  0.7852734423585443  1.0000
  H   H11       1.0  0.01941371351139508  0.9145950982060751  0.42407029973030846  1.0000
  H   H12       1.0  0.9805862860240836  0.08540490171933443  0.5759297002883141  1.0000
  H   H13       1.0  0.8539928484218252  0.9521067143246095  0.5564677081372531  1.0000
  H   H14       1.0  0.14600715111365353  0.047893285600799855  0.44353229188136956  1.0000
  H   H15       1.0  0.8169432399166232  0.8083847317374165  0.7008990010537584  1.0000
  H   H16       1.0  0.1830567596806876  0.19161526843106877  0.2991009982934088  1.0000
  H   H17       1.0  0.2907771745531803  0.559022142958162  0.5576640999202327  1.0000
  H   H18       1.0  0.7092228249822984  0.44097785696724734  0.44233590009838974  1.0000
  H   H19       1.0  0.06202426831772871  0.5290566056310002  0.5381584063719819  1.0000
  H   H20       1.0  0.9379757312177501  0.47094339429440907  0.4618415936466406  1.0000
  H   H21       1.0  0.12924924965266268  0.5103070171615127  0.649393598679777  1.0000
  H   H22       1.0  0.8707507512992826  0.4896929827643404  0.35060640134410087  1.0000
  H   H23       1.0  0.14346433912475717  0.19250207629646288  0.016974652952660436  1.0000
  H   H24       1.0  0.8565356618271881  0.8074979236293901  0.9830253470712174  1.0000
  H   H25       1.0  0.926260621295876  0.16809329186222202  0.9743526557053708  1.0000
  H   H26       1.0  0.07373937823960278  0.8319067080631875  0.02564734431325174  1.0000
  H   H27       1.0  0.5073138727026449  0.3296868742448294  0.3789087089006414  1.0000
  H   H28       1.0  0.4926861268328338  0.6703131256805801  0.6210912911179812  1.0000
  H   H29       1.0  0.494295171968049  0.07549938911492016  0.5322227235153081  1.0000
  H   H30       1.0  0.50570482756743  0.9245006108104892  0.46777727650331447  1.0000
  H   H31       1.0  0.7697440136094672  0.4793341841338805  0.8831748982116991  1.0000
  H   H32       1.0  0.23025598592601154  0.5206658157915288  0.1168251018069235  1.0000
  H   H33       1.0  0.8079478913245989  0.5875962145855231  0.9817124911295253  1.0000
  H   H34       1.0  0.19205210821087984  0.4124037853398862  0.018287508889097342  1.0000
  H   H35       1.0  0.7245640797595627  0.5215552019054576  0.14438183526524356  1.0000
  H   H36       1.0  0.2754359197759162  0.47844479801995193  0.8556181647533789  1.0000
  H   H37       1.0  0.6514586040947958  0.3055535686458687  0.9477121631634207  1.0000
  H   H38       1.0  0.34854139685714924  0.6944464312799843  0.052287836860457126  1.0000
  H   H39       1.0  0.8624002886320635  0.05853553636547712  0.1927829158795327  1.0000
  H   H40       1.0  0.1375997109034153  0.9414644635599323  0.8072170841390899  1.0000
  H   H41       1.0  0.8862953745531958  0.08268979967171591  0.29672035996263063  1.0000
  H   H42       1.0  0.11370462498228286  0.9173102002536935  0.7032796400559921  1.0000
  H   H43       1.0  0.9359804258169769  0.18097015959726412  0.1935902620885909  1.0000
  H   H44       1.0  0.06401957378033386  0.819029840571221  0.8064097372585763  1.0000
  H   H45       1.0  0.3516360438935558  0.39064854627644235  0.497951621441446  1.0000
  H   H46       1.0  0.648363955641923  0.6093514536489669  0.5020483785771765  1.0000
  H   H47       1.0  0.22090487375920562  0.3440598973045659  0.6563272508569751  1.0000
  H   H48       1.0  0.7790951272545715  0.6559401028643628  0.34367274849544743  1.0000
  H   H49       1.0  0.23419902593943306  0.1570983938088225  0.7520192558490724  1.0000
  H   H50       1.0  0.765800974863079  0.8429016068535877  0.24798074417646246  1.0000
  H   H51       1.0  0.3842019998260598  0.021322983981048274  0.681698907130295  1.0000
  H   H52       1.0  0.6157980011258853  0.9786770159448047  0.31830109289358294  1.0000
  C   C1        1.0  0.3083442612962667  0.7352830001275312  0.27322315322092794  1.0000
  C   C2        1.0  0.6916557382392121  0.2647169997978781  0.7267768467976947  1.0000
  C   C3        1.0  0.36493956558795265  0.7986824850403682  0.18842340036669242  1.0000
  C   C4        1.0  0.6350604353639925  0.2013175148854849  0.8115765996571854  1.0000
  C   C5        1.0  0.3309159536662795  0.9057820956408945  0.16501619218062463  1.0000
  C   C6        1.0  0.6690840458691992  0.09421790428451476  0.8349838078379979  1.0000
  C   C7        1.0  0.2394348234670904  0.9466647213221442  0.22926026054306406  1.0000
  C   C8        1.0  0.7605651760683884  0.05333527860326516  0.7707397394755586  1.0000
  C   C9        1.0  0.2154210475440146  0.7854392630101458  0.3342794787164311  1.0000
  C   C10       1.0  0.7845789534079306  0.2145607369157073  0.6657205213074466  1.0000
  C   C11       1.0  0.354407673461245  0.6216563229721351  0.298112855215678  1.0000
  C   C12       1.0  0.6455923260742337  0.37834367695327414  0.7018871448029446  1.0000
  C   C13       1.0  0.07662548950185391  0.7520319996189927  0.49200065057379483  1.0000
  C   C14       1.0  0.9233745100336248  0.2479680003064167  0.5079993494448277  1.0000
  C   C15       1.0  0.00464844391635957  0.8534505077765092  0.4872666830857135  1.0000
  C   C16       1.0  0.9953515556191191  0.1465494921489001  0.5127333169329091  1.0000
  C   C17       1.0  0.9129532313140102  0.8734727233125263  0.5620345827699104  1.0000
  C   C18       1.0  0.08704676828330055  0.1265272768559588  0.4379654165772569  1.0000
  C   C19       1.0  0.8914932457598357  0.7942921769874608  0.6424507070121593  1.0000
  C   C20       1.0  0.10850675519210967  0.20570782293839218  0.35754929301171845  1.0000
  C   C21       1.0  0.9656014667155828  0.6939822345978087  0.6467290568975016  1.0000
  C   C22       1.0  0.03439853423636249  0.3060177653280443  0.35327094312637625  1.0000
  C   C23       1.0  0.05964096732868341  0.6693220859899673  0.5738708245333354  1.0000
  C   C24       1.0  0.9403590322067954  0.3306779139354419  0.4261291754852873  1.0000
  C   C25       1.0  0.13988889331135368  0.5613408721786254  0.5801549836524056  1.0000
  C   C26       1.0  0.8601111062241251  0.4386591277467841  0.419845016366217  1.0000
  C   C27       1.0  0.07696544240757913  0.1812872052520967  0.960125514390242  1.0000
  C   C28       1.0  0.9230345571278996  0.8187127946733127  0.039874485628380675  1.0000
  C   C29       1.0  0.7353460187759654  0.45059793239684875  0.9547581705430975  1.0000
  C   C30       1.0  0.2646539807595135  0.5494020675285606  0.04524182947552505  1.0000
  C   C31       1.0  0.7555658323545377  0.5110699308207955  0.010097686173798599  1.0000
  C   C32       1.0  0.24443416703150783  0.4889300698411711  0.989902313846481  1.0000
  C   C33       1.0  0.7084069650967111  0.47422224948707753  0.10150226598628974  1.0000
  C   C34       1.0  0.29159303443876766  0.525777750438332  0.8984977340323328  1.0000
  C   C35       1.0  0.6414548208096833  0.37588240998879097  0.13949798242594222  1.0000
  C   C36       1.0  0.3585451787257954  0.6241175899366186  0.8605020175926804  1.0000
  C   C37       1.0  0.6218451352175219  0.3166635620999101  0.08203309858236453  1.0000
  C   C38       1.0  0.37815486573442325  0.6833364378259429  0.9179669014415134  1.0000
  C   C39       1.0  0.6686745835481691  0.3526083681208799  0.990720306178355  1.0000
  C   C40       1.0  0.33132541740377613  0.6473916318049732  0.009279693845522826  1.0000
  C   C41       1.0  0.5960141662286563  0.336030685782118  0.23708675242580843  1.0000
  C   C42       1.0  0.4039858333068224  0.6639693141432913  0.7629132475928142  1.0000
  C   C43       1.0  0.8448534679865559  0.11774406224302683  0.22688818563676674  1.0000
  C   C44       1.0  0.15514653154892288  0.8822559376823825  0.7731118143818558  1.0000
  C   C45       1.0  0.5974090497415749  0.22839594685090825  0.2797385558181378  1.0000
  C   C46       1.0  0.40259094979390386  0.771604053074501  0.7202614442004848  1.0000
  C   C47       1.0  0.5593626834344495  0.18139052696437677  0.3748727183702315  1.0000
  C   C48       1.0  0.440637315951596  0.8186094736975901  0.625127281650048  1.0000
  C   C49       1.0  0.4369103615056004  0.23122948636142693  0.5069752407435822  1.0000
  C   C50       1.0  0.5630896380298784  0.7687705135639824  0.4930247592750403  1.0000
  C   C51       1.0  0.3565856237904969  0.3104429191095161  0.5415478211563353  1.0000
  C   C52       1.0  0.6434143757449818  0.6895570808158932  0.4584521788622874  1.0000
  C   C53       1.0  0.28407234364085754  0.2835423741156404  0.6290320306122767  1.0000
  C   C54       1.0  0.715927655745188  0.7164576265463263  0.37096796940800286  1.0000
  C   C55       1.0  0.2896528822636547  0.17902136984996678  0.6829347421256553  1.0000
  C   C56       1.0  0.7103471172718241  0.8209786300754425  0.3170652578929674  1.0000
  C   C57       1.0  0.37038667003404485  0.10421662182342331  0.6469472095203979  1.0000
  C   C58       1.0  0.6296133309179004  0.8957833781024298  0.35305279050348  1.0000
  N   N1        1.0  0.18203160834738674  0.8894129456059638  0.31110939725414566  1.0000
  N   N2        1.0  0.8179683926045586  0.11058705431988923  0.6888906027697321  1.0000
  N   N3        1.0  0.16422360128109365  0.7253559889668083  0.41912313949061625  1.0000
  N   N4        1.0  0.8357763982543851  0.274644010958601  0.5808768605280064  1.0000
  N   N5        1.0  0.6418606510553826  0.1567785205450375  0.22914164928381298  1.0000
  N   N6        1.0  0.3581393497471293  0.8432214801173729  0.7708583507417219  1.0000
  N   N7        1.0  0.5067431693522711  0.25245122452420976  0.42122550779443974  1.0000
  N   N8        1.0  0.49325683018320754  0.7475487754011996  0.5787744922241829  1.0000
  N   N9        1.0  0.4423239748738676  0.1315777713362457  0.5614359893654286  1.0000
  N   N10       1.0  0.5576760246616111  0.8684222285891637  0.43856401065319406  1.0000
  O   O1        1.0  0.3205105705767137  0.5605178844651247  0.37445237886976745  1.0000
  O   O2        1.0  0.6794894289587652  0.4394821154602845  0.6255476211488551  1.0000
  O   O3        1.0  0.43834213648387405  0.590981372985145  0.2316483559583421  1.0000
  O   O4        1.0  0.5616578630516048  0.4090186269402643  0.7683516440602804  1.0000
  O   O5        1.0  0.3321293110555252  0.20569094235544946  0.1485029500508875  1.0000
  O   O6        1.0  0.6678706884799537  0.79430905756996  0.851497049967735  1.0000
  O   O7        1.0  0.6104615056726571  0.1259901843784708  0.0801255230363391  1.0000
  O   O8        1.0  0.38953849386282174  0.8740098155469385  0.9198744769822834  1.0000
  O   O9        1.0  0.5592954201843563  0.4029203140603746  0.28042503796503915  1.0000
  O   O10       1.0  0.44070457920168926  0.597079686601592  0.7195749620552404  1.0000
  O   O11       1.0  0.5686628916159369  0.08539804640867185  0.4140349849454529  1.0000
  O   O12       1.0  0.43133710791954205  0.9146019535167376  0.5859650150731697  1.0000
  S   S1        1.0  0.5361143408862626  0.19388266543153937  0.13126982848245328  1.0000
  S   S2        1.0  0.4638856600656826  0.8061173344943134  0.8687301715414246  1.0000
  Cl  Cl1       1.0  0.9351197020240885  0.5973476478096903  0.748671923958753  1.0000
  Cl  Cl2       1.0  0.06488029751139023  0.40265235211571915  0.25132807605986957  1.0000
  Cl  Cl3       1.0  0.1969847462727839  0.07167265088616108  0.9371472880361752  1.0000
  Cl  Cl4       1.0  0.8030152532626949  0.9283273490392483  0.06285271198244739  1.0000
  Cl  Cl5       1.0  0.09400384877479134  0.29671274129962827  0.8673127675818786  1.0000
  Cl  Cl6       1.0  0.9059961521771538  0.7032872586262248  0.13268723244199923  1.0000
