data_image0
_chemical_formula_structural       H94C88N4O6F8I2
_chemical_formula_sum              "H94 C88 N4 O6 F8 I2"
_cell_length_a       10.319231422833393
_cell_length_b       10.695017101226108
_cell_length_c       19.276041073313802
_cell_angle_alpha    76.61111556087799
_cell_angle_beta     78.94086511035239
_cell_angle_gamma    66.9270178635361

_space_group_name_H-M_alt    "P 1"
_space_group_IT_number       1

loop_
  _space_group_symop_operation_xyz
  'x, y, z'

loop_
  _atom_site_type_symbol
  _atom_site_label
  _atom_site_symmetry_multiplicity
  _atom_site_fract_x
  _atom_site_fract_y
  _atom_site_fract_z
  _atom_site_occupancy
  H   H1        1.0  0.9052327517356853  0.9433962649075599  0.9288529600004388  1.0000
  H   H2        1.0  0.09476724853979585  0.056603734973330336  0.07114704025839902  1.0000
  H   H3        1.0  0.514274625881428  0.43191177806785097  0.2854968224316998  1.0000
  H   H4        1.0  0.4857253745107794  0.5680882220000462  0.7145031772904499  1.0000
  H   H5        1.0  0.7005635938708977  0.30728094490640917  0.36729685611212953  1.0000
  H   H6        1.0  0.29943640555463386  0.6927190551558519  0.6327031436097859  1.0000
  H   H7        1.0  0.40199696026207965  0.1415360909707814  0.5074927261954842  1.0000
  H   H8        1.0  0.5980030401301275  0.8584639090971159  0.4925072735266655  1.0000
  H   H9        1.0  0.2288977180171932  0.27569029763598357  0.4208481987240333  1.0000
  H   H10       1.0  0.7711022823750142  0.7243097024319136  0.5791518009981165  1.0000
  H   H11       1.0  0.778957158371938  0.15374049227311723  0.4753188473874988  1.0000
  H   H12       1.0  0.2210428420202692  0.84625950779478  0.5246811523346511  1.0000
  H   H13       1.0  0.5570922083278387  0.05843288473198394  0.5809455634589111  1.0000
  H   H14       1.0  0.44290779206436875  0.9415671153359132  0.4190544362632387  1.0000
  H   H15       1.0  0.9369692031124783  0.05663197445211076  0.5455779616330613  1.0000
  H   H16       1.0  0.06303079619632677  0.9433680254231434  0.4544220386255423  1.0000
  H   H17       1.0  0.11351859708875363  0.9214121051668166  0.6309724890065393  1.0000
  H   H18       1.0  0.8864814033034536  0.07858789490108072  0.3690275107156104  1.0000
  H   H19       1.0  0.80481909718714  0.7754772957484031  0.7716284070902005  1.0000
  H   H20       1.0  0.19518090223839174  0.22452270431385773  0.22837159263171486  1.0000
  H   H21       1.0  0.6279345860615438  0.9122756521052561  0.6880934911257452  1.0000
  H   H22       1.0  0.3720654143306634  0.08772434796264136  0.3119065085964044  1.0000
  H   H23       1.0  0.006181921620609451  0.6111980139165444  0.804202938242272  1.0000
  H   H24       1.0  0.9938180778049223  0.3888019861457165  0.19579706147964349  1.0000
  H   H25       1.0  0.9630400801651183  0.7534807036164625  0.8489779357141373  1.0000
  H   H26       1.0  0.03695992011036241  0.24651929626442787  0.1510220645447006  1.0000
  H   H27       1.0  0.22132653143937628  0.688596095846707  0.858357847627548  1.0000
  H   H28       1.0  0.7786734688361046  0.3114039040341834  0.1416421526312899  1.0000
  H   H29       1.0  0.262712935547652  0.5444120426786171  0.8162881295689398  1.0000
  H   H30       1.0  0.7372870647278288  0.45558795720227324  0.18371187068989808  1.0000
  H   H31       1.0  0.07231163202890159  0.596231337198007  0.9584655069733563  1.0000
  H   H32       1.0  0.9276883682465795  0.4037686626828831  0.041534493285481686  1.0000
  H   H33       1.0  0.10421098922256318  0.4557964771338452  0.916755317153017  1.0000
  H   H34       1.0  0.8957890102029685  0.5442035229284158  0.08324468256889851  1.0000
  H   H35       1.0  0.3354269205781475  0.5140352155798237  0.9680034145828024  1.0000
  H   H36       1.0  0.6645730796973335  0.4859647843010665  0.03199658567603564  1.0000
  H   H37       1.0  0.36264671944719057  0.3710302758512911  0.9294933840527063  1.0000
  H   H38       1.0  0.6373532808282903  0.6289697240295993  0.07050661620613144  1.0000
  H   H39       1.0  0.17100742722558446  0.44034223188674476  0.06880990299332485  1.0000
  H   H40       1.0  0.8289925730498966  0.5596577679941456  0.9311900972655129  1.0000
  H   H41       1.0  0.2016267253994749  0.295468602980695  0.03069305374918636  1.0000
  H   H42       1.0  0.7983732749927326  0.7045313970872021  0.9693069459729633  1.0000
  H   H43       1.0  0.46338354224942185  0.21178635059541334  0.045240283502404256  1.0000
  H   H44       1.0  0.5366164570593837  0.7882136492798406  0.9547597167561992  1.0000
  H   H45       1.0  0.3560164695718217  0.22820961833511977  0.1286313183504768  1.0000
  H   H46       1.0  0.6439835307036593  0.7717903815457706  0.871368681908361  1.0000
  H   H47       1.0  0.42904827350926045  0.35526957661036257  0.08593273474018975  1.0000
  H   H48       1.0  0.5709517259162713  0.6447304234518983  0.9140672649817256  1.0000
  H   H49       1.0  0.9206066784131123  0.05507128796314258  0.8043504568311158  1.0000
  H   H50       1.0  0.07939332186236861  0.9449287119177477  0.195649543427722  1.0000
  H   H51       1.0  0.7407860644698886  0.19876661015796346  0.7214251110028113  1.0000
  H   H52       1.0  0.25921393592231884  0.8012333899099338  0.27857488871933855  1.0000
  H   H53       1.0  0.42113454711970305  0.13500664148248562  0.8923824196846583  1.0000
  H   H54       1.0  0.5788654523058286  0.8649933585797754  0.10761758003725716  1.0000
  H   H55       1.0  0.617590264009052  0.9934878962305246  0.9683067810056324  1.0000
  H   H56       1.0  0.3824097363831551  0.006512103837372786  0.031693218716517424  1.0000
  H   H57       1.0  0.3418666941155931  0.28439612481605614  0.7839369590490899  1.0000
  H   H58       1.0  0.6581333061598877  0.7156038750648342  0.216063041209748  1.0000
  H   H59       1.0  0.570437837509424  0.2887080051005965  0.6553503250450463  1.0000
  H   H60       1.0  0.42956216179938106  0.7112919947746574  0.34464967521355716  1.0000
  H   H61       1.0  0.4880654642739651  0.3882574910731492  0.5414090133567092  1.0000
  H   H62       1.0  0.511934536001516  0.6117425088077411  0.4585909869021287  1.0000
  H   H63       1.0  0.3003631473850859  0.531920188092148  0.4638929480679406  1.0000
  H   H64       1.0  0.6996368530071215  0.46807981197574927  0.5361070516542091  1.0000
  H   H65       1.0  0.993802602259  0.5935601953046407  0.6516435171698088  1.0000
  H   H66       1.0  0.006197398133207309  0.4064398047632565  0.348356482552341  1.0000
  H   H67       1.0  0.18072546363347486  0.4471519018217833  0.7287699432454883  1.0000
  H   H68       1.0  0.819274536642006  0.552848098059107  0.2712300570133497  1.0000
  H   H69       1.0  0.0820741271310173  0.57625066908067  0.4194206968144733  1.0000
  H   H70       1.0  0.9179258721777879  0.423749330794584  0.5805793034441302  1.0000
  H   H71       1.0  0.12135137765904919  0.7248520130357616  0.41939229302536735  1.0000
  H   H72       1.0  0.8786486227331582  0.27514798703213555  0.5806077066967825  1.0000
  H   H73       1.0  0.8591799197851365  0.8594553145916365  0.44193032829686657  1.0000
  H   H74       1.0  0.14082008060707082  0.14054468547626078  0.5580696714252832  1.0000
  H   H75       1.0  0.823919422725561  0.7154497937430807  0.4325105742050627  1.0000
  H   H76       1.0  0.17608057766664637  0.2845502063248164  0.567489425517087  1.0000
  H   H77       1.0  0.939237346533918  0.7310419856583767  0.3052373637399313  1.0000
  H   H78       1.0  0.06076265374156299  0.2689580142225136  0.6947626365189066  1.0000
  H   H79       1.0  0.9821793441428416  0.8692624309240345  0.3157440139888196  1.0000
  H   H80       1.0  0.017820656132639164  0.1307375689568559  0.6842559862700183  1.0000
  H   H81       1.0  0.6835917471353177  0.8678598978914609  0.3222882805792815  1.0000
  H   H82       1.0  0.3164082532568897  0.13214010217643632  0.6777117191428682  1.0000
  H   H83       1.0  0.7157513129258919  0.0010716003934698735  0.3468017703238158  1.0000
  H   H84       1.0  0.28424868649963975  0.9989283996687911  0.6531982293980996  1.0000
  H   H85       1.0  0.810506295924414  0.916912754290287  0.19830296805918193  1.0000
  H   H86       1.0  0.18949370446779332  0.08308724577761023  0.8016970316629679  1.0000
  H   H87       1.0  0.8335195119268435  0.05313556206246632  0.22481691074702811  1.0000
  H   H88       1.0  0.16648048846536412  0.9468644380054307  0.7751830889751216  1.0000
  H   H89       1.0  0.5461853102631778  0.03475800004220378  0.21804587827818342  1.0000
  H   H90       1.0  0.4538146901290295  0.9652420000256934  0.7819541214439664  1.0000
  H   H91       1.0  0.6236821604486785  0.14436039643227722  0.15703168454254052  1.0000
  H   H92       1.0  0.3763178398268023  0.8556396034486131  0.8429683157162974  1.0000
  H   H93       1.0  0.5676564227827909  0.17097555642598838  0.2470036988229976  1.0000
  H   H94       1.0  0.4323435776094165  0.8290244436419089  0.752996300899152  1.0000
  C   C1        1.0  0.14168227066145592  0.6538944805767901  0.1351329362135708  1.0000
  C   C2        1.0  0.8583177297307513  0.3461055194911071  0.8648670635085789  1.0000
  C   C3        1.0  0.2362829827613897  0.687365453221279  0.07884014876438622  1.0000
  C   C4        1.0  0.7637170176308177  0.31263454684661823  0.9211598509577635  1.0000
  C   C5        1.0  0.1914725480721977  0.7709204767442382  0.014750793789836751  1.0000
  C   C6        1.0  0.8085274523200096  0.229079523323659  0.9852492059323129  1.0000
  C   C7        1.0  0.0482176392895811  0.8265159844848322  0.0019800878265991964  1.0000
  C   C8        1.0  0.9517823609858997  0.17348401539605804  0.9980199124322386  1.0000
  C   C9        1.0  0.9531472882615614  0.7943873059282122  0.059344765892221346  1.0000
  C   C10       1.0  0.04685271104724386  0.2056126939470418  0.9406552343663822  1.0000
  C   C11       1.0  0.9994430250407349  0.7101166456625835  0.12332975954817745  1.0000
  C   C12       1.0  0.0005569753514723595  0.28988335440531393  0.8766702401739722  1.0000
  C   C13       1.0  0.49371459263877676  0.3661270546887221  0.3354994545384212  1.0000
  C   C14       1.0  0.5062854076367042  0.6338729451921681  0.6645005457204166  1.0000
  C   C15       1.0  0.597978874735987  0.2955148633453316  0.38141483100140167  1.0000
  C   C16       1.0  0.4020211256562203  0.7044851367225656  0.6185851687207481  1.0000
  C   C17       1.0  0.5693842403632332  0.2117443505627044  0.44594968804145185  1.0000
  C   C18       1.0  0.4306157599122478  0.7882556493181859  0.5540503122173861  1.0000
  C   C19       1.0  0.43324002513206183  0.20393628012193013  0.45899399924657824  1.0000
  C   C20       1.0  0.5667599752601454  0.796063719945967  0.5410060004755716  1.0000
  C   C21       1.0  0.33524332053241196  0.279143232361294  0.41026737918968653  1.0000
  C   C22       1.0  0.6647566797430691  0.7208567675195964  0.5897326210691513  1.0000
  C   C23       1.0  0.677113161064603  0.14186893379364685  0.4949361590212038  1.0000
  C   C24       1.0  0.32288683824420245  0.858131066081607  0.5050638412373997  1.0000
  C   C25       1.0  0.6601813996383459  0.06763231505157473  0.5611087116042325  1.0000
  C   C26       1.0  0.3398186006371351  0.9323676848293156  0.43889128865460536  1.0000
  C   C27       1.0  0.7675094920470948  0.9943508461098467  0.6098496307479194  1.0000
  C   C28       1.0  0.23249050834511242  0.005649153958050566  0.3901503689742304  1.0000
  C   C29       1.0  0.9067796059141772  0.9952481900418447  0.5948283749432496  1.0000
  C   C30       1.0  0.09322039436130389  0.004751809839045449  0.4051716253155883  1.0000
  C   C31       1.0  0.006796493917476557  0.9194715882456941  0.6419330585371842  1.0000
  C   C32       1.0  0.9932035063580043  0.08052841163519625  0.35806694172165376  1.0000
  C   C33       1.0  0.9721404147308209  0.8386638735088812  0.7060691238043337  1.0000
  C   C34       1.0  0.027859584694710653  0.16133612655337967  0.29393087591758177  1.0000
  C   C35       1.0  0.8344575572084447  0.8368069239918626  0.7224363244952422  1.0000
  C   C36       1.0  0.1655424430670363  0.16319307588902782  0.27756367576359553  1.0000
  C   C37       1.0  0.7345804899791366  0.9145470775571239  0.6748032088755664  1.0000
  C   C38       1.0  0.2654195104130708  0.08545292251077329  0.3251967908465833  1.0000
  C   C39       1.0  0.046690065891748476  0.6852698437310374  0.8151010288389229  1.0000
  C   C40       1.0  0.9533099345004589  0.3147301563368598  0.184898970883227  1.0000
  C   C41       1.0  0.18088121249630174  0.6116609416772072  0.8513302063786731  1.0000
  C   C42       1.0  0.8191187878959055  0.38833905839069005  0.14866979334347674  1.0000
  C   C43       1.0  0.15235696796109163  0.5267741250305885  0.9239686070344246  1.0000
  C   C44       1.0  0.8476430314644402  0.4732258750316723  0.07603139268749068  1.0000
  C   C45       1.0  0.2840830151206211  0.4443605872543661  0.9625530657146403  1.0000
  C   C46       1.0  0.7159169852715863  0.5556394128135311  0.03744693400750952  1.0000
  C   C47       1.0  0.25108050277991917  0.3663245423873727  0.03659571149013026  1.0000
  C   C48       1.0  0.7489194965288861  0.6336754574878812  0.9634042887684733  1.0000
  C   C49       1.0  0.38147652037585905  0.2860548043632512  0.076352036759384  1.0000
  C   C50       1.0  0.6185234800163484  0.713945195704646  0.9236479629627659  1.0000
  C   C51       1.0  0.8083029698978259  0.07477492729351658  0.8212786267530555  1.0000
  C   C52       1.0  0.1916970295277055  0.9252250727687443  0.1787213729688598  1.0000
  C   C53       1.0  0.7069281206356675  0.15501883048922419  0.7753249380862675  1.0000
  C   C54       1.0  0.2930718786731377  0.8449811693860299  0.22467506217233607  1.0000
  C   C55       1.0  0.562495802334452  0.17989233548372352  0.7992716519473048  1.0000
  C   C56       1.0  0.43750419752181996  0.8201076654119731  0.20072834831590947  1.0000
  C   C57       1.0  0.5307551076826725  0.11960526625467173  0.870523966201847  1.0000
  C   C58       1.0  0.4692448927095349  0.8803947338132254  0.12947603352030276  1.0000
  C   C59       1.0  0.6391359178936485  0.040480070226493345  0.9130003889222321  1.0000
  C   C60       1.0  0.3608640823818324  0.9595199296543968  0.0869996113366058  1.0000
  C   C61       1.0  0.44833728752005275  0.26414338784059743  0.7555331533403759  1.0000
  C   C62       1.0  0.5516627128721546  0.7358566122272998  0.2444668463817739  1.0000
  C   C63       1.0  0.4638430356532401  0.31564002273223385  0.6844423916567978  1.0000
  C   C64       1.0  0.5361569646222408  0.6843599771486564  0.3155576086020401  1.0000
  C   C65       1.0  0.35007034821929783  0.40352558203140493  0.6410204977824341  1.0000
  C   C66       1.0  0.6499296510895074  0.5964744178438489  0.3589795024761695  1.0000
  C   C67       1.0  0.37962083310139105  0.4328321830829564  0.5659997876935979  1.0000
  C   C68       1.0  0.6203791671740898  0.5671678167979339  0.43400021256523996  1.0000
  C   C69       1.0  0.274019510754778  0.5151046551941237  0.5218546434415844  1.0000
  C   C70       1.0  0.7259804896374294  0.4848953448737734  0.4781453562805654  1.0000
  C   C71       1.0  0.13406130714009884  0.5720429977003797  0.5529848610289244  1.0000
  C   C72       1.0  0.8659386931353822  0.42795700218051064  0.4470151392299134  1.0000
  C   C73       1.0  0.10268745074965223  0.5472204938079057  0.6280828335578628  1.0000
  C   C74       1.0  0.8973125496425551  0.4527795062599916  0.371917166164287  1.0000
  C   C75       1.0  0.208393248424673  0.4643484400369714  0.6709702243989528  1.0000
  C   C76       1.0  0.7916067519675344  0.5356515600309257  0.32902977532319705  1.0000
  C   C77       1.0  0.04191563121229432  0.6755814871753627  0.43859517044095725  1.0000
  C   C78       1.0  0.9580843691799129  0.32441851289253465  0.5614048292811925  1.0000
  C   C79       1.0  0.8989279558738988  0.7696525943939853  0.41425953346717126  1.0000
  C   C80       1.0  0.1010720434349066  0.2303474054812686  0.5857404667914322  1.0000
  C   C81       1.0  0.903055359561617  0.8195168205280142  0.3333549278847645  1.0000
  C   C82       1.0  0.0969446408305906  0.18048317953988305  0.6666450718373852  1.0000
  C   C83       1.0  0.7588123946603147  0.9219386894716822  0.3119026182603836  1.0000
  C   C84       1.0  0.241187604765217  0.07806131059057864  0.6880973814615318  1.0000
  C   C85       1.0  0.7631318501516865  0.9943326537458795  0.2337813254971739  1.0000
  C   C86       1.0  0.2368681491571188  0.005667346129374407  0.7662186747614296  1.0000
  C   C87       1.0  0.6172093502776183  0.0915619755925907  0.21275222691337095  1.0000
  C   C88       1.0  0.382790650114589  0.9084380244753065  0.7872477728087788  1.0000
  N   N1        1.0  0.3633467460542148  0.3600561498198143  0.3490943174974337  1.0000
  N   N2        1.0  0.6366532532545905  0.6399438500554395  0.6509056827611699  1.0000
  N   N3        1.0  0.7762883752042371  0.01761516980288038  0.8891824546089524  1.0000
  N   N4        1.0  0.22371162410456816  0.9823848300723735  0.11081754564965114  1.0000
  O   O1        1.0  0.014003716555812234  0.9034083686151968  0.9387270872821978  1.0000
  O   O2        1.0  0.9859962837196687  0.09659163126569344  0.06127291297664024  1.0000
  O   O3        1.0  0.07830061539562909  0.7675000840839636  0.748135266648171  1.0000
  O   O4        1.0  0.9216993839131762  0.23249991579129028  0.2518647336104326  1.0000
  O   O5        1.0  0.021416545791786458  0.6517922056044332  0.5159912900750847  1.0000
  O   O6        1.0  0.9785834536337452  0.34820779445782774  0.4840087096468306  1.0000
  F   F1        1.0  0.3767556778852325  0.6378670306246176  0.08586682241524614  1.0000
  F   F2        1.0  0.6232443223902483  0.3621329692562727  0.9141331778435919  1.0000
  F   F3        1.0  0.28783146778612506  0.8018128089157417  0.9623279178675451  1.0000
  F   F4        1.0  0.7121685326060823  0.19818719115215563  0.03767208185460461  1.0000
  F   F5        1.0  0.8117197961404873  0.8482351946852368  0.05169789596436362  1.0000
  F   F6        1.0  0.1882802042517201  0.15176480538266054  0.9483021037577862  1.0000
  F   F7        1.0  0.899823839150194  0.68153017991945  0.17544275711026278  1.0000
  F   F8        1.0  0.10017616027533756  0.31846982014281094  0.8245572426116526  1.0000
  I   I1        1.0  0.21753951897174093  0.5233398056247813  0.2311537033928031  1.0000
  I   I2        1.0  0.7824604804537909  0.47666019443747953  0.7688462963291123  1.0000
