data_image0
_chemical_formula_structural       H60C50N8O12
_chemical_formula_sum              "H60 C50 N8 O12"
_cell_length_a       7.8026406660567735
_cell_length_b       10.167821784504476
_cell_length_c       15.103100930747384
_cell_angle_alpha    77.4229272397668
_cell_angle_beta     89.36395674145196
_cell_angle_gamma    87.2118604988776

_space_group_name_H-M_alt    "P 1"
_space_group_IT_number       1

loop_
  _space_group_symop_operation_xyz
  'x, y, z'

loop_
  _atom_site_type_symbol
  _atom_site_label
  _atom_site_symmetry_multiplicity
  _atom_site_fract_x
  _atom_site_fract_y
  _atom_site_fract_z
  _atom_site_occupancy
  H   H1        1.0  0.8866112610151368  0.3924003120826448  0.9992176987815692  1.0000
  H   H2        1.0  0.11338873910015047  0.6075996871844488  0.000782301289894523  1.0000
  H   H3        1.0  0.5556027715822017  0.9304009540037347  0.8507503813392807  1.0000
  H   H4        1.0  0.44439722847605023  0.06959904627215187  0.14924961858758012  1.0000
  H   H5        1.0  0.22573550873584197  0.08512647080015479  0.9037682044359122  1.0000
  H   H6        1.0  0.7742644913224099  0.9148735294757319  0.09623179549094865  1.0000
  H   H7        1.0  0.524788478280842  0.22849986083528118  0.9420656552349254  1.0000
  H   H8        1.0  0.47521152183444554  0.7715001384318125  0.05793434483653826  1.0000
  H   H9        1.0  0.8552888935807702  0.9330102531607821  0.8481443931406863  1.0000
  H   H10       1.0  0.14471110647748167  0.06698974711510443  0.15185560678617446  1.0000
  H   H11       1.0  0.5225254453729316  0.8994359299612094  0.6818789117413184  1.0000
  H   H12       1.0  0.4774745547423558  0.10056406930588428  0.31812108833014513  1.0000
  H   H13       1.0  0.4466778458916905  0.695391633487107  0.6254950225046813  1.0000
  H   H14       1.0  0.5533221541665615  0.30460836678877945  0.3745049774221795  1.0000
  H   H15       1.0  0.5030521770160534  0.466146843485744  0.900357971544061  1.0000
  H   H16       1.0  0.49694782304219864  0.5338531567901427  0.09964202838279976  1.0000
  H   H17       1.0  0.5825615226013452  0.678384615149506  0.9446491845783626  1.0000
  H   H18       1.0  0.41743847751394203  0.32161538411758755  0.05535081549310114  1.0000
  H   H19       1.0  0.4097223094653751  0.4035682228772575  0.4885666565763143  1.0000
  H   H20       1.0  0.5902776906452947  0.5964317763853434  0.5114333441579387  1.0000
  H   H21       1.0  0.3160035180633935  0.1985282506122543  0.44287067762433907  1.0000
  H   H22       1.0  0.6839964819948585  0.8014717496636323  0.5571293223025218  1.0000
  H   H23       1.0  0.23782820725357834  0.008561152957997923  0.7245706358352733  1.0000
  H   H24       1.0  0.7621717928046736  0.9914388473178887  0.2754293640915874  1.0000
  H   H25       1.0  0.33303912300909927  0.2142003978107218  0.7696328533431935  1.0000
  H   H26       1.0  0.6669608770491527  0.7857996024651647  0.23036714658366717  1.0000
  H   H27       1.0  0.3554313291389019  0.9725675894669821  0.4418802505715866  1.0000
  H   H28       1.0  0.64456867091935  0.027432410808904562  0.5581197493552742  1.0000
  H   H29       1.0  0.13487300189962312  0.031575713727718245  0.4298198289869024  1.0000
  H   H30       1.0  0.8651269982156642  0.9684242855393754  0.5701801710845613  1.0000
  H   H31       1.0  0.04934085118306724  0.7979929812451052  0.5060338030423623  1.0000
  H   H32       1.0  0.9506591488751847  0.20200701903078142  0.4939661968844985  1.0000
  H   H33       1.0  0.26672526104609146  0.7419274429279847  0.5134601567766756  1.0000
  H   H34       1.0  0.7332747390121606  0.2580725573479019  0.4865398431501852  1.0000
  H   H35       1.0  0.06965293858449882  0.8530577010259525  0.335743491406201  1.0000
  H   H36       1.0  0.9303470614737531  0.14694229924993413  0.6642565085206598  1.0000
  H   H37       1.0  0.288528947475765  0.7998704989802069  0.34243216331801607  1.0000
  H   H38       1.0  0.7114710525824871  0.20012950129567958  0.6575678366088447  1.0000
  H   H39       1.0  0.997157433749589  0.6199272796427506  0.42525113957412003  1.0000
  H   H40       1.0  0.0028425663086629003  0.3800727206331358  0.5747488603527408  1.0000
  H   H41       1.0  0.21551657908890517  0.5689982201100325  0.42252956271650116  1.0000
  H   H42       1.0  0.7844834209693469  0.43100178016585405  0.5774704372103597  1.0000
  H   H43       1.0  0.20203041345673423  0.6210073824023872  0.2504242246500667  1.0000
  H   H44       1.0  0.7979695866015176  0.37899261787349947  0.7495757752767941  1.0000
  H   H45       1.0  0.9818027988104987  0.6651581947014854  0.2569406835166  1.0000
  H   H46       1.0  0.018197201304788697  0.33484180456560825  0.7430593165548637  1.0000
  H   H47       1.0  0.15326913901385444  0.38744110085863903  0.3377046118075963  1.0000
  H   H48       1.0  0.8467308611014327  0.6125588984084547  0.6622953882638674  1.0000
  H   H49       1.0  0.935270616291382  0.43094824139428245  0.352098781611287  1.0000
  H   H50       1.0  0.06472938382390525  0.5690517578728113  0.6479012184601767  1.0000
  H   H51       1.0  0.10614674928935196  0.4368388772337359  0.16727588976336413  1.0000
  H   H52       1.0  0.8938532508259353  0.5631611220333579  0.8327241103080996  1.0000
  H   H53       1.0  0.8872847733400462  0.4721889214160456  0.18544552669687667  1.0000
  H   H54       1.0  0.11271522671820583  0.527811078859841  0.8145544732299842  1.0000
  H   H55       1.0  0.08361076694667016  0.19934591319734637  0.2546643612013024  1.0000
  H   H56       1.0  0.9163892331115817  0.8006540870785402  0.7453356387255584  1.0000
  H   H57       1.0  0.9263263834222895  0.23561433912733515  0.16733656693547475  1.0000
  H   H58       1.0  0.07367361663596259  0.7643856611485514  0.832663432991386  1.0000
  H   H59       1.0  0.866763646187737  0.2327132519378022  0.2813217976621348  1.0000
  H   H60       1.0  0.133236353870515  0.7672867483380844  0.7186782022647261  1.0000
  C   C1        1.0  0.9641526111040827  0.20176457006132023  0.9358111874538593  1.0000
  C   C2        1.0  0.03584738901120467  0.7982354292057734  0.06418881261760448  1.0000
  C   C3        1.0  0.794031974969591  0.2536247569145427  0.9519672154197433  1.0000
  C   C4        1.0  0.2059680250886609  0.7463752433613439  0.04803278450711752  1.0000
  C   C5        1.0  0.6531926372752755  0.1907264318602609  0.9297769095154719  1.0000
  C   C6        1.0  0.3468073627829764  0.8092735684156257  0.07022309041138898  1.0000
  C   C7        1.0  0.673999495478146  0.07525023433902696  0.8929370359788911  1.0000
  C   C8        1.0  0.326000504580106  0.9247497659368595  0.10706296394796973  1.0000
  C   C9        1.0  0.839065504741411  0.022600295465620743  0.8763249503452577  1.0000
  C   C10       1.0  0.1609344953122236  0.9773997048057731  0.12367505024439256  1.0000
  C   C11       1.0  0.9834068922037686  0.0837010020205931  0.8972163929883652  1.0000
  C   C12       1.0  0.016593107854483282  0.9162989982552935  0.10278360693849566  1.0000
  C   C13       1.0  0.5201151353202879  0.8004837919948748  0.7275711027452737  1.0000
  C   C14       1.0  0.4798848647333466  0.19951620827651906  0.2724288978443765  1.0000
  C   C15       1.0  0.4787761161045565  0.6878699114239601  0.6962094007974374  1.0000
  C   C16       1.0  0.5212238839536956  0.31213008885192645  0.30379059912942336  1.0000
  C   C17       1.0  0.47307955682044983  0.5634874352067261  0.7586279986317428  1.0000
  C   C18       1.0  0.5269204432378021  0.4365125650691606  0.24137200129511804  1.0000
  C   C19       1.0  0.5083442461648409  0.5598477537106016  0.8498031061423493  1.0000
  C   C20       1.0  0.49165575395044653  0.44015224555649207  0.1501968939291143  1.0000
  C   C21       1.0  0.5508109829515839  0.6779188079598484  0.8747725266568132  1.0000
  C   C22       1.0  0.44918901710666803  0.3220811923160381  0.12522747327004763  1.0000
  C   C23       1.0  0.3759092448867757  0.32247208926384274  0.6321141822752507  1.0000
  C   C24       1.0  0.6240907551714764  0.6775279110120438  0.36788581765161  1.0000
  C   C25       1.0  0.37200269368162564  0.31671645444072644  0.5400742463540614  1.0000
  C   C26       1.0  0.6279973063766263  0.68328354583516  0.45992575357279936  1.0000
  C   C27       1.0  0.32108115030525425  0.20116840654501056  0.5143016148755566  1.0000
  C   C28       1.0  0.678918849810033  0.7988315927220832  0.4856983851959071  1.0000
  C   C29       1.0  0.27412267130606083  0.08947639679435668  0.5809552711042977  1.0000
  C   C30       1.0  0.7258773288092265  0.910523602472737  0.419044728967166  1.0000
  C   C31       1.0  0.2768959028658234  0.09504159728486847  0.6735165385971905  1.0000
  C   C32       1.0  0.7231040972494639  0.9049584019822251  0.3264834614742732  1.0000
  C   C33       1.0  0.32778427465447074  0.2095750672616828  0.6985420097214066  1.0000
  C   C34       1.0  0.6722157254561991  0.7904249320009181  0.30145799101284654  1.0000
  C   C35       1.0  0.22545653654994946  0.9559100804257413  0.47031257709730906  1.0000
  C   C36       1.0  0.7745434635653379  0.044089918841352514  0.5296874229741546  1.0000
  C   C37       1.0  0.17423345550337718  0.8140084511003702  0.47180650106146227  1.0000
  C   C38       1.0  0.8257665445548749  0.18599154917551636  0.5281934988653986  1.0000
  C   C39       1.0  0.16429815037520523  0.7830939877140543  0.3775740269592378  1.0000
  C   C40       1.0  0.8357018496830468  0.2169060125618323  0.6224259729676231  1.0000
  C   C41       1.0  0.11507297944852998  0.6376842780720661  0.3842565916794925  1.0000
  C   C42       1.0  0.884927019327862  0.3623157222067812  0.6157434082517692  1.0000
  C   C43       1.0  0.08708094653743077  0.5999285505763724  0.29339361490818205  1.0000
  C   C44       1.0  0.9129190535778565  0.4000714486907213  0.7066063851632817  1.0000
  C   C45       1.0  0.044245397259250155  0.45224236482186636  0.30469582559662667  1.0000
  C   C46       1.0  0.9557546015171418  0.547757635456981  0.695304174334635  1.0000
  C   C47       1.0  0.0009011814808076719  0.41161303788633147  0.21633278109219048  1.0000
  C   C48       1.0  0.9990988186344797  0.5883869613807622  0.7836672189792733  1.0000
  C   C49       1.0  0.9673755934511618  0.26183401096368475  0.23031325635587785  1.0000
  C   C50       1.0  0.032624406607090255  0.7381659893122018  0.769686743570983  1.0000
  N   N1        1.0  0.10637387884265544  0.26346795373955106  0.9582683624996541  1.0000
  N   N2        1.0  0.8936261212155965  0.7365320465363355  0.04173163742720669  1.0000
  N   N3        1.0  0.5559945521707287  0.7968041342399377  0.8151290736557862  1.0000
  N   N4        1.0  0.4440054478875233  0.2031958660359489  0.18487092627107451  1.0000
  N   N5        1.0  0.4277174563841397  0.44173339212443585  0.7371945663394699  1.0000
  N   N6        1.0  0.5722825436741122  0.5582666081514508  0.26280543358739095  1.0000
  N   N7        1.0  0.4272055834889651  0.44251177772389916  0.6526959331310075  1.0000
  N   N8        1.0  0.5727944166263222  0.5574882215431944  0.3473040669404561  1.0000
  O   O1        1.0  0.25692698884662074  0.21795640496852342  0.9441699470566981  1.0000
  O   O2        1.0  0.7430730112116312  0.7820435953073631  0.05583005287016266  1.0000
  O   O3        1.0  0.09034552244982348  0.36616382759637794  0.9938860214892802  1.0000
  O   O4        1.0  0.9096544776084285  0.6338361726795086  0.006113978437580726  1.0000
  O   O5        1.0  0.7689236261781125  0.36234003667087605  0.9883216588565338  1.0000
  O   O6        1.0  0.2310763739371747  0.6376599625962177  0.011678341214929869  1.0000
  O   O7        1.0  0.5320328847112628  0.018717100500160382  0.8751135637435218  1.0000
  O   O8        1.0  0.46796711534698926  0.9812828997757261  0.12488643618333896  1.0000
  O   O9        1.0  0.13840859452679216  0.029932115539946545  0.881783685028259  1.0000
  O   O10       1.0  0.8615914055314599  0.9700678847359401  0.11821631489860182  1.0000
  O   O11       1.0  0.2248016932974043  0.9718724844484545  0.5632062619324787  1.0000
  O   O12       1.0  0.7751983067608477  0.028127515827432174  0.43679373799438204  1.0000
