data_image0
_chemical_formula_structural       H72C44N12O14S6
_chemical_formula_sum              "H72 C44 N12 O14 S6"
_cell_length_a       6.147245762707906
_cell_length_b       20.35001565222587
_cell_length_c       10.931896303992534
_cell_angle_alpha    90.0
_cell_angle_beta     101.98545585757155
_cell_angle_gamma    90.0

_space_group_name_H-M_alt    "P 1"
_space_group_IT_number       1

loop_
  _space_group_symop_operation_xyz
  'x, y, z'

loop_
  _atom_site_type_symbol
  _atom_site_label
  _atom_site_symmetry_multiplicity
  _atom_site_fract_x
  _atom_site_fract_y
  _atom_site_fract_z
  _atom_site_occupancy
  H   H1        1.0  0.7243717826746067  0.7351080355736113  0.5882608591972881  1.0000
  H   H2        1.0  0.2756282164491676  0.23510803587400092  0.4117391409601454  1.0000
  H   H3        1.0  0.44781022985422114  0.7257091774464883  0.613235599956901  1.0000
  H   H4        1.0  0.5521897692695532  0.22570917725547798  0.3867644002005325  1.0000
  H   H5        1.0  0.508179491636962  0.7069112179491865  0.4629351823142186  1.0000
  H   H6        1.0  0.4918205091499714  0.20691121824957626  0.5370648171227626  1.0000
  H   H7        1.0  0.843214639045105  0.6766983792709642  0.4336803452737866  1.0000
  H   H8        1.0  0.1567853600786692  0.1766983795713539  0.566319654883647  1.0000
  H   H9        1.0  0.43156784024213496  0.5790880489426564  0.2527059382784206  1.0000
  H   H10       1.0  0.5684321588818009  0.07908804924304617  0.7472940609642774  1.0000
  H   H11       1.0  0.4866644221244792  0.46849270747156385  0.35921477992668543  1.0000
  H   H12       1.0  0.5133355769994566  0.9684927076625742  0.6407852193160125  1.0000
  H   H13       1.0  0.016141594263065606  0.4553704885719046  0.6283470597242568  1.0000
  H   H14       1.0  0.9838584048608701  0.955370488762915  0.3716529395184413  1.0000
  H   H15       1.0  0.7231012796422752  0.5263536973657514  0.6897993920949594  1.0000
  H   H16       1.0  0.2768987194816606  0.026353697174741  0.31020060714773845  1.0000
  H   H17       1.0  0.07666887240205571  0.7094798469317536  0.33701985815662083  1.0000
  H   H18       1.0  0.9233311267217185  0.20947984723214327  0.6629801420008127  1.0000
  H   H19       1.0  0.7973285185465263  0.6359894223759169  0.19983479175917523  1.0000
  H   H20       1.0  0.2026714805772479  0.13598942218490653  0.8001652083982583  1.0000
  H   H21       1.0  0.17092012582879879  0.6216339523363622  0.06230050850078992  1.0000
  H   H22       1.0  0.8290798749579731  0.12163395214535172  0.9376994918509267  1.0000
  H   H23       1.0  0.9418636484950568  0.5697559671769489  0.06185954343442801  1.0000
  H   H24       1.0  0.058136350628879035  0.06975596747733864  0.93814045580827  1.0000
  H   H25       1.0  0.9011735271327078  0.6199278381695064  0.853862863674394  1.0000
  H   H26       1.0  0.09882647365422544  0.11992783797849592  0.1461371357625872  1.0000
  H   H27       1.0  0.15489824344927747  0.7140985200377725  0.9116364669896091  1.0000
  H   H28       1.0  0.8451017556744966  0.21409851984676212  0.08836353316782435  1.0000
  H   H29       1.0  0.8944338625980831  0.7442776132874048  0.832721182206482  1.0000
  H   H30       1.0  0.1055661381886887  0.2442776130963943  0.1672788181452347  1.0000
  H   H31       1.0  0.1253581123320167  0.7721479726862667  0.09342240836935962  1.0000
  H   H32       1.0  0.8746418884549166  0.27214797249525624  0.9065775910676216  1.0000
  H   H33       1.0  0.8780662213901247  0.8082680643147762  0.007470140379150923  1.0000
  H   H34       1.0  0.12193377939664715  0.3082680646151658  0.9925298599725658  1.0000
  H   H35       1.0  0.536740205213139  0.7584582136825909  0.9899230079249784  1.0000
  H   H36       1.0  0.46325979391063515  0.2584582134915806  0.010076992232455055  1.0000
  H   H37       1.0  0.49595750337184663  0.6927255576070322  0.09100921354994826  1.0000
  H   H38       1.0  0.5040424974149251  0.19272555741602182  0.9089907868017685  1.0000
  H   H39       1.0  0.552731156795701  0.6836009233476139  0.8343339970712843  1.0000
  H   H40       1.0  0.4472688439912324  0.1836009236480036  0.1656660023656969  1.0000
  H   H41       1.0  0.5533134320156529  0.5712160540146094  0.02590422534492303  1.0000
  H   H42       1.0  0.4466865671082829  0.07121605431499914  0.9740957738977749  1.0000
  H   H43       1.0  0.31643776326744427  0.5940338064888789  0.7513953139687846  1.0000
  H   H44       1.0  0.6835622375193275  0.09403380678926863  0.2486046863829322  1.0000
  H   H45       1.0  0.28362211809793136  0.5231243047636474  0.8544904656619096  1.0000
  H   H46       1.0  0.7163778810258428  0.02312430457263694  0.145509534495524  1.0000
  H   H47       1.0  0.28344886326362845  0.4400867101554501  0.503691094494244  1.0000
  H   H48       1.0  0.7165511375231434  0.9400867103464606  0.49630890585747267  1.0000
  H   H49       1.0  0.8052413188753514  0.7543520934992947  0.18711208039914776  1.0000
  H   H50       1.0  0.19475868191142046  0.2543520933082843  0.812887919952569  1.0000
  H   H51       1.0  0.3529810292949611  0.7392677198434727  0.2604055334703024  1.0000
  H   H52       1.0  0.6470189714918108  0.23926771965246232  0.7395944668814144  1.0000
  H   H53       1.0  0.08403358855003616  0.4119195362428687  0.8243384481839319  1.0000
  H   H54       1.0  0.9159664122367357  0.911919535942479  0.17566155216778484  1.0000
  H   H55       1.0  0.8117622662028859  0.38478637922538966  0.7745269906040364  1.0000
  H   H56       1.0  0.18823773292088844  0.8847863794164  0.22547300955339708  1.0000
  H   H57       1.0  0.6490564826332291  0.4050231459698396  0.057500517502320166  1.0000
  H   H58       1.0  0.3509435181535426  0.9050231456694499  0.9424994828493966  1.0000
  H   H59       1.0  0.552017150107158  0.40323562007198993  0.8939498575813246  1.0000
  H   H60       1.0  0.4479828490166162  0.9032356202630004  0.10605014257610887  1.0000
  H   H61       1.0  0.1480330818851887  0.3439506489634769  0.38476585068129465  1.0000
  H   H62       1.0  0.8519669189015832  0.8439506491544874  0.615234149670422  1.0000
  H   H63       1.0  0.015206374525086332  0.3625303732477992  0.23176165786281513  1.0000
  H   H64       1.0  0.984793624598688  0.8625303734388097  0.7682383422946184  1.0000
  H   H65       1.0  0.6559324346066637  0.33517503605723  0.4994595898587059  1.0000
  H   H66       1.0  0.3440675661801081  0.8351750357568403  0.5005404104930109  1.0000
  H   H67       1.0  0.9435896978126066  0.31956378123417767  0.5364324867029338  1.0000
  H   H68       1.0  0.056410301311167615  0.8195637814251882  0.46356751345449976  1.0000
  H   H69       1.0  0.6830836395757781  0.46386118376117835  0.22772048182714652  1.0000
  H   H70       1.0  0.31691636121099365  0.9638611834607886  0.7722795185245702  1.0000
  H   H71       1.0  0.8846267535911787  0.4895958376774135  0.18130003567910952  1.0000
  H   H72       1.0  0.11537324719575458  0.9895958378684238  0.8186999637578718  1.0000
  C   C1        1.0  0.5713228674024521  0.7058169637539784  0.5644827070423735  1.0000
  C   C2        1.0  0.4286771317213221  0.205816963562968  0.4355172931150601  1.0000
  C   C3        1.0  0.7697763245909301  0.6054516974610947  0.5650444932306815  1.0000
  C   C4        1.0  0.23022367453300563  0.10545169727008433  0.43495550601201655  1.0000
  C   C5        1.0  0.8824470228087532  0.6286010983289252  0.4759247668305233  1.0000
  C   C6        1.0  0.11755297797801854  0.12860109813791473  0.5240752335211933  1.0000
  C   C7        1.0  0.04682906251128021  0.5889319715923222  0.43888461710056104  1.0000
  C   C8        1.0  0.953170936612494  0.08893197140131187  0.5611153830568725  1.0000
  C   C9        1.0  0.17053713699169437  0.6075633710211737  0.34735335266711564  1.0000
  C   C10       1.0  0.829462863795239  0.10756337083016336  0.6526466467698655  1.0000
  C   C11       1.0  0.3317296731874126  0.5656335536400913  0.3200321486745911  1.0000
  C   C12       1.0  0.6682703259363617  0.06563355344908092  0.6799678514828424  1.0000
  C   C13       1.0  0.36830168267048324  0.5047604343673548  0.37925020957792077  1.0000
  C   C14       1.0  0.6316983164532909  0.0047604341763444235  0.6207497905795127  1.0000
  C   C15       1.0  0.09149054841919031  0.5259866003508072  0.49618792326257966  1.0000
  C   C16       1.0  0.9085094523675815  0.025986600159796792  0.503812077089137  1.0000
  C   C17       1.0  0.9735531220599541  0.5031065761799624  0.5854663106756495  1.0000
  C   C18       1.0  0.02644687872697929  0.0031065759889518886  0.4145336887613317  1.0000
  C   C19       1.0  0.814679717093659  0.5422185854089548  0.6196055202634554  1.0000
  C   C20       1.0  0.18532028369311276  0.04221858521794438  0.38039448008826127  1.0000
  C   C21       1.0  0.12705787056156181  0.6717539427791429  0.2761683498269778  1.0000
  C   C22       1.0  0.8729421302253716  0.17175394307953262  0.7238316496100033  1.0000
  C   C23       1.0  0.9302007105255938  0.6606444977613318  0.16359118694820796  1.0000
  C   C24       1.0  0.06979929026133955  0.16064449757032134  0.8364088124887733  1.0000
  C   C25       1.0  0.9906588473377105  0.6212132553626444  0.055805254011391366  1.0000
  C   C26       1.0  0.009341153449061267  0.12121325517163399  0.9441947463403254  1.0000
  C   C27       1.0  0.8776644042243503  0.6520167034146087  0.9306565189728792  1.0000
  C   C28       1.0  0.1223355948994239  0.15201670322359828  0.06934348118455444  1.0000
  C   C29       1.0  0.9805221587596862  0.7196714042034708  0.918532182794606  1.0000
  C   C30       1.0  0.019477840364087902  0.2196714040124603  0.08146781736282736  1.0000
  C   C31       1.0  0.96391952893458  0.7614866713041093  0.03353990680767872  1.0000
  C   C32       1.0  0.03608047185219192  0.26148667111309887  0.966460093544038  1.0000
  C   C33       1.0  0.6021977647113483  0.7110352285364128  0.029463267786517606  1.0000
  C   C34       1.0  0.3978022360754234  0.21103522883680254  0.970536732565199  1.0000
  C   C35       1.0  0.6259632595468632  0.6613075527795977  0.9252260910579764  1.0000
  C   C36       1.0  0.37403674124007014  0.16130755258858734  0.0747739083790048  1.0000
  C   C37       1.0  0.5092620004968891  0.5972743779521636  0.9362198886474666  1.0000
  C   C38       1.0  0.49073800029004433  0.09727437776115322  0.06378011078951455  1.0000
  C   C39       1.0  0.361671067609069  0.5701779752061693  0.8427715755190968  1.0000
  C   C40       1.0  0.6383289315147053  0.07017797501515892  0.15722842463833672  1.0000
  C   C41       1.0  0.8888883934807252  0.4177397175156553  0.9541286908424325  1.0000
  C   C42       1.0  0.11111160730620806  0.9177397177066657  0.04587130859454879  1.0000
  C   C43       1.0  0.8071792465094239  0.3434283220924979  0.35104216510976505  1.0000
  C   C44       1.0  0.19282075261435042  0.8434283217921082  0.6489578350476685  1.0000
  N   N1        1.0  0.25102662608126325  0.48710787398906796  0.4633987975731406  1.0000
  N   N2        1.0  0.748973373042511  0.9871078741800784  0.5366012025842929  1.0000
  N   N3        1.0  0.826727257144694  0.7250991754586696  0.11071366723379994  1.0000
  N   N4        1.0  0.17327274197908019  0.22509917575905936  0.8892863329236336  1.0000
  N   N5        1.0  0.9238590056688812  0.4121903394743835  0.836538043809088  1.0000
  N   N6        1.0  0.07614099511789053  0.9121903391739937  0.16346195654262874  1.0000
  N   N7        1.0  0.6814270475470379  0.4081588300445111  0.969700042326925  1.0000
  N   N8        1.0  0.3185729532398954  0.9081588297441214  0.030299957110056255  1.0000
  N   N9        1.0  0.004950594728535247  0.3433002273507273  0.31713293304562057  1.0000
  N   N10       1.0  0.995049404395239  0.8433002270503376  0.682867067111813  1.0000
  N   N11       1.0  0.8031106114096775  0.3304043267045135  0.4712148840085377  1.0000
  N   N12       1.0  0.19688938937709413  0.830404326895524  0.528785116343179  1.0000
  O   O1        1.0  0.6117697336694143  0.639576169002916  0.6078462698979812  1.0000
  O   O2        1.0  0.3882302654545215  0.13957616930330574  0.3921537293447168  1.0000
  O   O3        1.0  0.3231990583517231  0.6917863642262199  0.23795777516437697  1.0000
  O   O4        1.0  0.6768009407720512  0.1917863640352094  0.7620422249930565  1.0000
  O   O5        1.0  0.3376412469178122  0.398121564054612  0.7464206060165083  1.0000
  O   O6        1.0  0.6623587522059621  0.8981215642456225  0.2535793941409253  1.0000
  O   O7        1.0  0.35586967088335986  0.3629114466647698  0.5354133268098386  1.0000
  O   O8        1.0  0.6441303282405759  0.8629114463643802  0.46458667243285945  1.0000
  O   O9        1.0  0.20951185990237814  0.2883048553998665  0.6723608154324808  1.0000
  O   O10       1.0  0.7904881392213962  0.7883048555908768  0.3276391847249526  1.0000
  O   O11       1.0  0.606708536937685  0.31566289922226054  0.7137667503455515  1.0000
  O   O12       1.0  0.3932914638490868  0.8156628989218708  0.28623325000616523  1.0000
  O   O13       1.0  0.7629910084920918  0.5053604918910779  0.2210045494648097  1.0000
  O   O14       1.0  0.237008990631844  0.0053604917000674756  0.7789954497778884  1.0000
  S   S1        1.0  0.10545572764884668  0.43556298832775064  0.07511122830823201  1.0000
  S   S2        1.0  0.8945442731379251  0.9355629885187612  0.9248887720434846  1.0000
  S   S3        1.0  0.5639400708187147  0.3577208555711238  0.2453879307298526  1.0000
  S   S4        1.0  0.43605992830522117  0.8577208557621342  0.7546120685128455  1.0000
  S   S5        1.0  0.3760729798337553  0.34149341596402555  0.668568638577024  1.0000
  S   S6        1.0  0.6239270209530166  0.8414934161550359  0.33143136177469273  1.0000
