data_image0
_chemical_formula_structural       H44C34N12O12S2
_chemical_formula_sum              "H44 C34 N12 O12 S2"
_cell_length_a       5.789761683714569
_cell_length_b       8.487862129296142
_cell_length_c       21.538878340075904
_cell_angle_alpha    88.71189165714937
_cell_angle_beta     84.18467830068523
_cell_angle_gamma    70.7792544810134

_space_group_name_H-M_alt    "P 1"
_space_group_IT_number       1

loop_
  _space_group_symop_operation_xyz
  'x, y, z'

loop_
  _atom_site_type_symbol
  _atom_site_label
  _atom_site_symmetry_multiplicity
  _atom_site_fract_x
  _atom_site_fract_y
  _atom_site_fract_z
  _atom_site_occupancy
  H   H1        1.0  0.48317655351691585  0.5856087196561442  0.259228467573608  1.0000
  H   H2        1.0  0.5168234464612798  0.4143912798638024  0.7407715324737792  1.0000
  H   H3        1.0  0.6291313321935196  0.5392662324276022  0.3288839932454112  1.0000
  H   H4        1.0  0.3708686678012377  0.46073376708804814  0.6711160063373054  1.0000
  H   H5        1.0  0.2381658190475722  0.25005158089094937  0.27480440059000094  1.0000
  H   H6        1.0  0.7618341809306237  0.7499484186289973  0.7251955994573864  1.0000
  H   H7        1.0  0.01291689444969301  0.32138509709971763  0.19375890062490486  1.0000
  H   H8        1.0  0.9870831055285028  0.678614902420229  0.8062410994224825  1.0000
  H   H9        1.0  0.7398988540418394  0.4135046475135162  0.10867369350815037  1.0000
  H   H10       1.0  0.2601011459363564  0.5864953520064305  0.891326306539237  1.0000
  H   H11       1.0  0.6076883587682941  0.6035841497374366  0.019144148363485453  1.0000
  H   H12       1.0  0.39231164120990175  0.3964158497825102  0.980855851683902  1.0000
  H   H13       1.0  0.11975777993649069  0.8365385395194036  0.03964036893832952  1.0000
  H   H14       1.0  0.8802422200417052  0.16346146000054296  0.9603596311090578  1.0000
  H   H15       1.0  0.27408685760551715  0.6580933692753481  0.13167081942169157  1.0000
  H   H16       1.0  0.7259131417750688  0.34190663149236916  0.8683291806293348  1.0000
  H   H17       1.0  0.7796315546756747  0.7497952683880308  0.28367199404160964  1.0000
  H   H18       1.0  0.22036844530252106  0.25020473113191577  0.7163280060057777  1.0000
  H   H19       1.0  0.8077325146450655  0.15861448735990483  0.16440172420024127  1.0000
  H   H20       1.0  0.1922674853331304  0.8413855121600418  0.8355982758471461  1.0000
  H   H21       1.0  0.33717063092349575  0.8722877342875547  0.1379195527319543  1.0000
  H   H22       1.0  0.6628293690547001  0.12771226523239185  0.862080447315433  1.0000
  H   H23       1.0  0.17753457549585142  0.914988881480091  0.3404567961789078  1.0000
  H   H24       1.0  0.822465424498906  0.08501111803555914  0.6595432034038087  1.0000
  H   H25       1.0  0.22895525561286897  0.17603353180073833  0.02432681338939629  1.0000
  H   H26       1.0  0.7710447437677168  0.823966468966979  0.9756731866616302  1.0000
  H   H27       1.0  0.07655414274363467  0.4947009670375736  0.39562125214827687  1.0000
  H   H28       1.0  0.9234458566369512  0.5052990337301437  0.6043787479027495  1.0000
  H   H29       1.0  0.6256759165014467  0.8557616776687306  0.4787302026022093  1.0000
  H   H30       1.0  0.37432408347674895  0.14423832185121613  0.5212697974451781  1.0000
  H   H31       1.0  0.8309425436068767  0.9599251920577764  0.44573196542619375  1.0000
  H   H32       1.0  0.16905745810965803  0.04007480745744041  0.5542680345777689  1.0000
  H   H33       1.0  0.8529259514034713  0.8817539420426207  0.5236567701668349  1.0000
  H   H34       1.0  0.1470740479771146  0.11824605872509668  0.47634322988419164  1.0000
  H   H35       1.0  0.3336891850703358  0.5196189977508652  0.455855941993577  1.0000
  H   H36       1.0  0.6663108166461988  0.48038100176435156  0.5441440580103856  1.0000
  H   H37       1.0  0.2063218011426544  0.630945182805657  0.5281113726332686  1.0000
  H   H38       1.0  0.7936781982379314  0.36905481796206036  0.4718886274177579  1.0000
  H   H39       1.0  0.32318603985720273  0.7302307233554765  0.464829213395251  1.0000
  H   H40       1.0  0.6768139595233831  0.2697692774122408  0.5351707866557754  1.0000
  H   H41       1.0  0.5032837988022344  0.8439736653392444  0.38246345263255493  1.0000
  H   H42       1.0  0.4967162011759614  0.15602633418070233  0.6175365474148324  1.0000
  H   H43       1.0  0.3975516979500684  0.04169547061886621  0.37087210500578094  1.0000
  H   H44       1.0  0.6024483014305175  0.9583045301488511  0.6291278950452456  1.0000
  C   C1        1.0  0.4530133943678621  0.37901242583902867  0.3076173128380712  1.0000
  C   C2        1.0  0.5469866056103336  0.6209875736809181  0.6923826872093162  1.0000
  C   C3        1.0  0.09105447007923957  0.4211922431236235  0.18274174564930246  1.0000
  C   C4        1.0  0.908945529898956  0.5788077563963232  0.817258254398085  1.0000
  C   C5        1.0  0.016235036503879634  0.5245308001514224  0.12888083704811074  1.0000
  C   C6        1.0  0.9837649628767063  0.47546920061629494  0.8711191630029157  1.0000
  C   C7        1.0  0.8278096595789811  0.506937890459342  0.09629980274328426  1.0000
  C   C8        1.0  0.17219033980160486  0.4930621103083754  0.9037001973077422  1.0000
  C   C9        1.0  0.7531331952348421  0.6106629630789364  0.0462492348026149  1.0000
  C   C10       1.0  0.24686680474335373  0.38933703644101025  0.9537507652447725  1.0000
  C   C11       1.0  0.0398569149794281  0.7427635559997665  0.057542841081590475  1.0000
  C   C12       1.0  0.9601430849987678  0.2572364435201801  0.9424571589657968  1.0000
  C   C13       1.0  0.12457339588677785  0.6445197856318748  0.10801452503610039  1.0000
  C   C14       1.0  0.8754266040914178  0.3554802138880718  0.8919854750112871  1.0000
  C   C15       1.0  0.717933107821652  0.8296656953851081  0.2441461014560123  1.0000
  C   C16       1.0  0.2820668938948826  0.1703343041301085  0.7558538985479504  1.0000
  C   C17       1.0  0.8110978212880285  0.9604141650312664  0.22995164882670122  1.0000
  C   C18       1.0  0.1889021798308963  0.039585835731720954  0.7700483511809003  1.0000
  C   C19       1.0  0.7345964680080815  0.05872841773026985  0.1782330741098328  1.0000
  C   C20       1.0  0.26540353370845315  0.9412715817849469  0.8217669258941297  1.0000
  C   C21       1.0  0.5626814048869322  0.026521194524592662  0.14412007834046883  1.0000
  C   C22       1.0  0.4373185944936536  0.9734788062431248  0.8558799217105576  1.0000
  C   C23       1.0  0.475621094776792  0.8959563340393358  0.1634577159286568  1.0000
  C   C24       1.0  0.5243789052014037  0.10404366548061081  0.8365422841187304  1.0000
  C   C25       1.0  0.47382626564251834  0.1288740053667611  0.08840482020244372  1.0000
  C   C26       1.0  0.5261737343356773  0.8711259941531856  0.9115951798449436  1.0000
  C   C27       1.0  0.9871644108983246  0.9940574661030002  0.26925389947171835  1.0000
  C   C28       1.0  0.01283558848226105  0.005942534664717252  0.7307461005793081  1.0000
  C   C29       1.0  0.9309942940654449  0.613560577096964  0.40932819986374075  1.0000
  C   C30       1.0  0.06900570765108993  0.38643942241825263  0.5906718001402218  1.0000
  C   C31       1.0  0.8139811143681935  0.8585362219093712  0.47668738907817176  1.0000
  C   C32       1.0  0.18601888502895375  0.14146377885404976  0.5233126105081839  1.0000
  C   C33       1.0  0.22582415125024277  0.6411093680318014  0.477122858745543  1.0000
  C   C34       1.0  0.774175848130343  0.3588906327359158  0.5228771413054835  1.0000
  N   N1        1.0  0.5333767166843724  0.5076676236670693  0.296329356291149  1.0000
  N   N2        1.0  0.466623283310385  0.49233237584858097  0.7036706432915676  1.0000
  N   N3        1.0  0.30504484343487365  0.34866339070360824  0.26689264549770414  1.0000
  N   N4        1.0  0.6949551582816612  0.6513366088116086  0.7331073545062583  1.0000
  N   N5        1.0  0.24423977286158005  0.449135998498673  0.21749249316761038  1.0000
  N   N6        1.0  0.7557602271166158  0.5508640010212735  0.7825075068797771  1.0000
  N   N7        1.0  0.8557928166333275  0.726510103312935  0.027479899148381816  1.0000
  N   N8        1.0  0.1442071833448684  0.27348989620701175  0.9725201008990055  1.0000
  N   N9        1.0  0.5527982886155914  0.7968077107511841  0.21173994662272777  1.0000
  N   N10       1.0  0.44720171250333324  0.20319229001180347  0.7882600533848738  1.0000
  N   N11       1.0  0.9853446333369271  0.698592994601034  0.45371413580003894  1.0000
  N   N12       1.0  0.014655367781997775  0.30140700616195326  0.5462858642075628  1.0000
  O   O1        1.0  0.0505597614924175  0.8871089090548353  0.31485906724428775  1.0000
  O   O2        1.0  0.9494402378881683  0.11289109171288203  0.6851409328067387  1.0000
  O   O3        1.0  0.06521095683614248  0.1125773244821802  0.2583908356753073  1.0000
  O   O4        1.0  0.9347890431420532  0.8874226750377664  0.7416091643720801  1.0000
  O   O5        1.0  0.56818031458892  0.23327158280443952  0.06741727028000755  1.0000
  O   O6        1.0  0.43181968538927573  0.7667284167155073  0.9325827297673799  1.0000
  O   O7        1.0  0.29110342381518256  0.09638829673581832  0.06585200174963164  1.0000
  O   O8        1.0  0.7088965755654033  0.9036117040318989  0.9341479983013947  1.0000
  O   O9        1.0  0.7320376124711863  0.6589429494280696  0.3845478790131359  1.0000
  O   O10       1.0  0.2679623869259612  0.34105705133535147  0.6154521205732196  1.0000
  O   O11       1.0  0.3488757145613865  0.941232982190083  0.38164832421063305  1.0000
  O   O12       1.0  0.6511242854168092  0.05876701732986364  0.6183516758367543  1.0000
  S   S1        1.0  0.5217106687473685  0.25473144980558104  0.3706207752234785  1.0000
  S   S2        1.0  0.4782893306332172  0.7452685509621363  0.6293792248275478  1.0000
