data_image0
_chemical_formula_structural       H44C36N4O8
_chemical_formula_sum              "H44 C36 N4 O8"
_cell_length_a       8.957040994016504
_cell_length_b       9.382392544545109
_cell_length_c       10.80624507833816
_cell_angle_alpha    82.7954832736315
_cell_angle_beta     72.08798228231281
_cell_angle_gamma    65.24014225066

_space_group_name_H-M_alt    "P 1"
_space_group_IT_number       1

loop_
  _space_group_symop_operation_xyz
  'x, y, z'

loop_
  _atom_site_type_symbol
  _atom_site_label
  _atom_site_symmetry_multiplicity
  _atom_site_fract_x
  _atom_site_fract_y
  _atom_site_fract_z
  _atom_site_occupancy
  H   H1        1.0  0.7329725107414489  0.9228949263595523  0.8145996630673464  1.0000
  H   H2        1.0  0.2670274892092726  0.07710507319891885  0.18540033656271193  1.0000
  H   H3        1.0  0.4942349302350738  0.4761395541346183  0.3001495636059577  1.0000
  H   H4        1.0  0.5057650692026305  0.5238604465975596  0.6998504360212603  1.0000
  H   H5        1.0  0.4333034908252821  0.8126431005869327  0.06259766956689336  1.0000
  H   H6        1.0  0.5666965091188177  0.18735689897893035  0.9374023309894168  1.0000
  H   H7        1.0  0.5332725801821147  0.6608391376745492  0.9489071704771174  1.0000
  H   H8        1.0  0.46672742094335634  0.3391608618806293  0.05109282885649934  1.0000
  H   H9        1.0  0.2800072440367822  0.7714182164889846  0.85833564810328  1.0000
  H   H10       1.0  0.7199927553943006  0.228581784250585  0.14166435245018982  1.0000
  H   H11       1.0  0.17605903000390855  0.924192071067974  0.9743957997338722  1.0000
  H   H12       1.0  0.8239409694271742  0.07580792967159575  0.02560420081959761  1.0000
  H   H13       1.0  0.2894177934268935  0.5722538775202257  0.03414435673191432  1.0000
  H   H14       1.0  0.7105822071855604  0.42774612320865946  0.9658556425988621  1.0000
  H   H15       1.0  0.19487316746631456  0.7206397548502069  0.15349039648897705  1.0000
  H   H16       1.0  0.8051268319713899  0.2793602458819707  0.846509603138241  1.0000
  H   H17       1.0  0.022488887745883847  0.6894203255085378  0.9583954121801315  1.0000
  H   H18       1.0  0.9775111133795871  0.31057967404664066  0.041604587153485445  1.0000
  H   H19       1.0  0.9291220291662309  0.8368373259818176  0.07812521889839112  1.0000
  H   H20       1.0  0.07087797077786909  0.16316267358404535  0.921874781657919  1.0000
  H   H21       1.0  0.04055147214176788  0.4834767057830112  0.1326640807030103  1.0000
  H   H22       1.0  0.959448528983703  0.5165232937721672  0.8673359186306064  1.0000
  H   H23       1.0  0.9516623545632562  0.6298553692162221  0.25224790490268534  1.0000
  H   H24       1.0  0.04833764538746526  0.3701446303422489  0.747752094727373  1.0000
  H   H25       1.0  0.6826650195808738  0.7539860814218576  0.18291665925392503  1.0000
  H   H26       1.0  0.3173349803632259  0.24601391814400533  0.8170833413023851  1.0000
  H   H27       1.0  0.769106349363496  0.6187150472010684  0.05766336807524062  1.0000
  H   H28       1.0  0.23089365058060385  0.38128495236479454  0.9423366324810697  1.0000
  H   H29       1.0  0.22243007559740577  0.48342808780758656  0.26374208500619445  1.0000
  H   H30       1.0  0.777569924346694  0.5165719117582764  0.7362579155501158  1.0000
  H   H31       1.0  0.5516047409448515  0.2626201244005182  0.4892689834064253  1.0000
  H   H32       1.0  0.448395258492853  0.7373798763316596  0.5107310162207928  1.0000
  H   H33       1.0  0.02890229269475914  0.3527720395093265  0.37549585531865254  1.0000
  H   H34       1.0  0.9710977072559625  0.6472279600491445  0.6245041443114058  1.0000
  H   H35       1.0  0.37350810933037676  0.12064904203273247  0.616577454955584  1.0000
  H   H36       1.0  0.6264918906203446  0.8793509575257387  0.3834225446744744  1.0000
  H   H37       1.0  0.8470006366872013  0.29487476421945424  0.511566996231244  1.0000
  H   H38       1.0  0.15299936392525268  0.7051252365094309  0.48843300309953236  1.0000
  H   H39       1.0  0.24771637390847  0.9762930352681753  0.6821095020639275  1.0000
  H   H40       1.0  0.7522836260356297  0.023706964297687625  0.3178904984923826  1.0000
  H   H41       1.0  0.6630667471228776  0.1622819432822838  0.6459713434350818  1.0000
  H   H42       1.0  0.33693325282784364  0.8377180562761873  0.3540286561949766  1.0000
  H   H43       1.0  0.048558699480234724  0.852646155289822  0.7983923106823261  1.0000
  H   H44       1.0  0.951441300463865  0.14735384427604098  0.20160768987398411  1.0000
  C   C1        1.0  0.5215696887934886  0.8814683709820686  0.8693131715269161  1.0000
  C   C2        1.0  0.4784303106375941  0.11853162975750109  0.1306868290265539  1.0000
  C   C3        1.0  0.44071090383620287  0.7841479519870219  0.9646414360546642  1.0000
  C   C4        1.0  0.5592890961145186  0.21585204757144918  0.03535856357539408  1.0000
  C   C5        1.0  0.26760603342369044  0.8008969806292348  0.9573128024078116  1.0000
  C   C6        1.0  0.732393966527031  0.19910301892923632  0.04268719722224687  1.0000
  C   C7        1.0  0.1982541116182971  0.6956336656122227  0.05544073683294712  1.0000
  C   C8        1.0  0.8017458878194073  0.3043663351199549  0.9445592627942708  1.0000
  C   C9        1.0  0.020441177783185507  0.7138467692454291  0.05626122050150586  1.0000
  C   C10       1.0  0.979558822167536  0.2861532303130419  0.9437387791285525  1.0000
  C   C11       1.0  0.9530745052768994  0.6073698264966247  0.15435643286963968  1.0000
  C   C12       1.0  0.04692549532893283  0.3926301742396524  0.8456435673873884  1.0000
  C   C13       1.0  0.7737489521399709  0.6321264901017422  0.15598598056316934  1.0000
  C   C14       1.0  0.2262510478041288  0.36787350946412084  0.8440140199931409  1.0000
  C   C15       1.0  0.7019573580711178  0.5245408705476967  0.24453393223181605  1.0000
  C   C16       1.0  0.29804264136658654  0.47545913018448105  0.7554660673954019  1.0000
  C   C17       1.0  0.25020195635968845  0.40199584031709945  0.3429329314242875  1.0000
  C   C18       1.0  0.7497980435910329  0.5980041592413716  0.6570670682057709  1.0000
  C   C19       1.0  0.4339527471826127  0.2779620285176761  0.46882372629638197  1.0000
  C   C20       1.0  0.5660472522484701  0.7220379722218937  0.5311762742570879  1.0000
  C   C21       1.0  0.1416306566441382  0.3285107895110578  0.40718985560961196  1.0000
  C   C22       1.0  0.8583693427869447  0.6714892112285119  0.5928101449438579  1.0000
  C   C23       1.0  0.33347118980923995  0.19883184643951282  0.5386148284277643  1.0000
  C   C24       1.0  0.666528810803214  0.8011681542893724  0.4613851709030121  1.0000
  C   C25       1.0  0.18166983563082098  0.2246052002766561  0.5090888031245976  1.0000
  C   C26       1.0  0.8183301643132785  0.775394799289207  0.4909111974317126  1.0000
  C   C27       1.0  0.06702525953366734  0.14758484056929072  0.5835249427996013  1.0000
  C   C28       1.0  0.9329747404170541  0.8524151589891804  0.416475056830457  1.0000
  C   C29       1.0  0.8990506841131394  0.19825904876231534  0.5743768073199899  1.0000
  C   C30       1.0  0.10094931701233173  0.8017409507928631  0.42562319201362686  1.0000
  C   C31       1.0  0.12071114609308829  0.021724992316461404  0.6676129370908993  1.0000
  C   C32       1.0  0.8792888545127439  0.9782750084198157  0.33238706316612887  1.0000
  C   C33       1.0  0.7952552830453414  0.12368932074611275  0.6476212805468212  1.0000
  C   C34       1.0  0.204744716392363  0.876310679986065  0.3523787190803968  1.0000
  C   C35       1.0  0.008910518882502959  0.9528016533779639  0.7353319036441631  1.0000
  C   C36       1.0  0.9910894810615967  0.04719834618789929  0.26466809691214704  1.0000
  N   N1        1.0  0.39323232366178273  0.3786467310532263  0.3730057460437137  1.0000
  N   N2        1.0  0.6067676757693001  0.6213532696863433  0.6269942545097561  1.0000
  N   N3        1.0  0.8486686922884126  0.0025507996450266877  0.7264010823224926  1.0000
  N   N4        1.0  0.15133130714929194  0.9974492010871511  0.2735989173047253  1.0000
  O   O1        1.0  0.6716473423740651  0.8600531838261964  0.8837601702624975  1.0000
  O   O2        1.0  0.3283526570570176  0.1399468169133732  0.11623983029097246  1.0000
  O   O3        1.0  0.45811644764243564  0.9693560846965154  0.7869246670706458  1.0000
  O   O4        1.0  0.5418835523082859  0.030643914861955678  0.21307533255941258  1.0000
  O   O5        1.0  0.7794706404973619  0.4193439447432569  0.3113855780859026  1.0000
  O   O6        1.0  0.22052935893372103  0.5806560559963126  0.6886144224675671  1.0000
  O   O7        1.0  0.5437963231435613  0.5552800998278508  0.24219267005551212  1.0000
  O   O8        1.0  0.45620367680053847  0.44471989973801224  0.7578073305007981  1.0000
