data_image0
_chemical_formula_structural       H56C44N4O8
_chemical_formula_sum              "H56 C44 N4 O8"
_cell_length_a       9.398954647014987
_cell_length_b       10.635819273820989
_cell_length_c       10.724620896409961
_cell_angle_alpha    96.96667027780322
_cell_angle_beta     97.01185387912437
_cell_angle_gamma    112.7750834787467

_space_group_name_H-M_alt    "P 1"
_space_group_IT_number       1

loop_
  _space_group_symop_operation_xyz
  'x, y, z'

loop_
  _atom_site_type_symbol
  _atom_site_label
  _atom_site_symmetry_multiplicity
  _atom_site_fract_x
  _atom_site_fract_y
  _atom_site_fract_z
  _atom_site_occupancy
  H   H1        1.0  0.9520661543561678  0.49623372379234565  0.19804430363437298  1.0000
  H   H2        1.0  0.047933845553552755  0.503766275329432  0.8019556961095788  1.0000
  H   H3        1.0  0.5950492009955431  0.6829769950882715  0.6688230607362342  1.0000
  H   H4        1.0  0.4049507983323804  0.3170230050783712  0.33117693906055357  1.0000
  H   H5        1.0  0.9168333287534457  0.32517682096213796  0.489359050137524  1.0000
  H   H6        1.0  0.08316667164296436  0.6748231791970722  0.5106409497783677  1.0000
  H   H7        1.0  0.9907345029109967  0.25727920384584957  0.3673949430154682  1.0000
  H   H8        1.0  0.009265497481464808  0.7427207963188786  0.6326050578330684  1.0000
  H   H9        1.0  0.37114235196471645  0.641936366714451  0.2856734891409587  1.0000
  H   H10       1.0  0.6288576473592589  0.3580636334577098  0.714326511588474  1.0000
  H   H11       1.0  0.31053858805472306  0.7089461232698561  0.41454597111153524  1.0000
  H   H12       1.0  0.6894614107865111  0.29105387585935416  0.5854540285133126  1.0000
  H   H13       1.0  0.37698209025654367  0.9349415392057634  0.33261518521681643  1.0000
  H   H14       1.0  0.6230179101398663  0.06505846095344676  0.6673848146990753  1.0000
  H   H15       1.0  0.4419284889805991  0.8671776501183387  0.20414826386804225  1.0000
  H   H16       1.0  0.5580715114158109  0.1328223500408714  0.7958517360478495  1.0000
  H   H17       1.0  0.8408087740640657  0.10362189858932094  0.573015324838766  1.0000
  H   H18       1.0  0.15919122526385773  0.8963781015773216  0.4269846749580217  1.0000
  H   H19       1.0  0.9152976331825271  0.03395189580827078  0.45214846375785706  1.0000
  H   H20       1.0  0.08470236614539664  0.966048104358372  0.5478515360389308  1.0000
  H   H21       1.0  0.2553373906423708  0.45555287357630997  0.44472438645536344  1.0000
  H   H22       1.0  0.7446626097540392  0.5444471265829002  0.5552756134605283  1.0000
  H   H23       1.0  0.1795857576308178  0.521374810689131  0.5649092501602664  1.0000
  H   H24       1.0  0.8204142427655922  0.478625189470079  0.43509074975562534  1.0000
  H   H25       1.0  0.5753755697591896  0.8999172952675574  0.48790730105332536  1.0000
  H   H26       1.0  0.4246244306332721  0.10008270489717085  0.5120926997952113  1.0000
  H   H27       1.0  0.6433841316599028  0.8356100584307525  0.3601282270149898  1.0000
  H   H28       1.0  0.3566158687365072  0.1643899417284576  0.6398717729009019  1.0000
  H   H29       1.0  0.11410163802115629  0.30211266178066304  0.6552586424116061  1.0000
  H   H30       1.0  0.8858983623752535  0.697887338378547  0.34474135750428553  1.0000
  H   H31       1.0  0.18862894847227  0.2340051722838008  0.5332532315462417  1.0000
  H   H32       1.0  0.8113710503650159  0.7659948268509276  0.4667467690112509  1.0000
  H   H33       1.0  0.6457818364562979  0.12759595051170416  0.40597505211110974  1.0000
  H   H34       1.0  0.3542181634534227  0.8724040486100735  0.594024947632842  1.0000
  H   H35       1.0  0.7229223639260971  0.060668896774273166  0.28513257328559966  1.0000
  H   H36       1.0  0.27707763540182645  0.9393311033923695  0.7148674265111882  1.0000
  H   H37       1.0  0.23480026164798487  0.7366515662298431  0.7568482467017846  1.0000
  H   H38       1.0  0.7651997387484252  0.263348433929367  0.24315175321410715  1.0000
  H   H39       1.0  0.24067153379867248  0.05605403089140989  0.3217172227288002  1.0000
  H   H40       1.0  0.7593284665977375  0.9439459692678002  0.6782827771870915  1.0000
  H   H41       1.0  0.9539106652868019  0.24559897240659934  0.04171044721528415  1.0000
  H   H42       1.0  0.04608933510960794  0.7544010277526108  0.9582895527006077  1.0000
  H   H43       1.0  0.22192013776268718  0.44919674913736385  0.9857840445695966  1.0000
  H   H44       1.0  0.7780798626337229  0.5508032510218462  0.014215955346295316  1.0000
  H   H45       1.0  0.7306258816946087  0.026733333082675375  0.979393876024449  1.0000
  H   H46       1.0  0.26937411870180133  0.9732666670765348  0.020606123891442667  1.0000
  H   H47       1.0  0.22161894525049702  0.3895708164609796  0.17198346458078004  1.0000
  H   H48       1.0  0.7783810551419648  0.6104291837037488  0.8280165362677566  1.0000
  H   H49       1.0  0.4949019015526437  0.5960689728152497  0.10464750557671974  1.0000
  H   H50       1.0  0.5050980972885905  0.40393102631396044  0.8953524940481279  1.0000
  H   H51       1.0  0.5074287549923652  0.8943385836353236  0.8588153120477734  1.0000
  H   H52       1.0  0.49257124433555827  0.10566141653131898  0.14118468774901444  1.0000
  H   H53       1.0  0.9763035783596586  0.8982034117082301  0.20498427456046825  1.0000
  H   H54       1.0  0.023696422036751225  0.10179658845097975  0.7950157253554235  1.0000
  H   H55       1.0  0.7321970896484135  0.7983782205375402  0.1319871757770948  1.0000
  H   H56       1.0  0.2678029107440483  0.201621779627188  0.8680128250714418  1.0000
  C   C1        1.0  0.9721307722272452  0.2528219701633318  0.4665112295675981  1.0000
  C   C2        1.0  0.027869227100678406  0.747178030003311  0.5334887702291897  1.0000
  C   C3        1.0  0.32045092944897646  0.7162475853324035  0.31417513584420453  1.0000
  C   C4        1.0  0.6795490709474336  0.28375241482680663  0.6858248640716872  1.0000
  C   C5        1.0  0.4297343033330137  0.8622268693065367  0.3044737049554696  1.0000
  C   C6        1.0  0.5702656970633961  0.13777313085267323  0.6955262949604222  1.0000
  C   C7        1.0  0.859991539575277  0.10642047846228103  0.4739260132119075  1.0000
  C   C8        1.0  0.14000846082113294  0.893579521696929  0.5260739867039843  1.0000
  C   C9        1.0  0.23702909694579388  0.4504921213423406  0.5436732548204085  1.0000
  C   C10       1.0  0.7629709034506161  0.5495078788168695  0.4563267450954832  1.0000
  C   C11       1.0  0.5908528169800574  0.9085617030388827  0.3885432330843303  1.0000
  C   C12       1.0  0.40914718234786607  0.09143829712775993  0.6114567667124575  1.0000
  C   C13       1.0  0.13098605328699955  0.3042855871472989  0.5555719413359317  1.0000
  C   C14       1.0  0.8690139471094104  0.6957144130119113  0.44442805857996004  1.0000
  C   C15       1.0  0.39652965995734474  0.5124808254099166  0.6293127083797921  1.0000
  C   C16       1.0  0.6034703404390652  0.48751917474929346  0.3706872915360996  1.0000
  C   C17       1.0  0.7024085783264002  0.05605805412243028  0.3837978106777355  1.0000
  C   C18       1.0  0.2975914220700099  0.9439419460367799  0.6162021892381564  1.0000
  C   C19       1.0  0.15647005390155164  0.6641463379050708  0.23752603423781002  1.0000
  C   C20       1.0  0.8435299454263718  0.3358536622615719  0.7624739655589777  1.0000
  C   C21       1.0  0.297392202931686  0.7102452443931038  0.8347085230573402  1.0000
  C   C22       1.0  0.7026077969780347  0.28975475472867374  0.16529147668661148  1.0000
  C   C23       1.0  0.17145418055603343  0.09415669040470262  0.26015791739856925  1.0000
  C   C24       1.0  0.8285458198403765  0.9058433097545074  0.7398420825173225  1.0000
  C   C25       1.0  0.011177332423770595  0.1996785016976666  0.105321258852189  1.0000
  C   C26       1.0  0.9888226679726395  0.8003214984615435  0.8946787410637027  1.0000
  C   C27       1.0  0.9357051121149242  0.059627866085783104  0.11656280887236828  1.0000
  C   C28       1.0  0.06429488828148566  0.940372134073427  0.8834371910435236  1.0000
  C   C29       1.0  0.2905092688517542  0.549847242555289  0.9628693856008953  1.0000
  C   C30       1.0  0.7094907310579666  0.4501527565664886  0.03713061414305625  1.0000
  C   C31       1.0  0.776455942601989  0.9759160681742971  0.046502097435143025  1.0000
  C   C32       1.0  0.22354405779047265  0.02408393199043109  0.9534979034133936  1.0000
  C   C33       1.0  0.16153405191992407  0.27969142884555265  0.17475645978955287  1.0000
  C   C34       1.0  0.8384659484764859  0.7203085713136576  0.8252435401263389  1.0000
  C   C35       1.0  0.5269039810894026  0.7602505645501982  0.9932305419809445  1.0000
  C   C36       1.0  0.47309601775183163  0.23974943457901213  0.006769457643903158  1.0000
  C   C37       1.0  0.44269701231363506  0.6316671052014075  0.027451370070400393  1.0000
  C   C38       1.0  0.5573029875960857  0.36833289392037016  0.9725486296735513  1.0000
  C   C39       1.0  0.4498065126038956  0.7982443462196462  0.8931261267843706  1.0000
  C   C40       1.0  0.5501934877925143  0.20175565393956385  0.1068738731315211  1.0000
  C   C41       1.0  0.021463583346098224  0.006809070196142367  0.19564473133813307  1.0000
  C   C42       1.0  0.9785364170503118  0.9931909299630678  0.8043552685777587  1.0000
  C   C43       1.0  0.6864112760517957  0.8459771836615538  0.0614465719598784  1.0000
  C   C44       1.0  0.3135887243446142  0.15402281649765628  0.9385534279560134  1.0000
  N   N1        1.0  0.21828904992574774  0.5880570886216233  0.8685982378688588  1.0000
  N   N2        1.0  0.7817109504706622  0.4119429115375868  0.13140176204703283  1.0000
  N   N3        1.0  0.24050956004144391  0.22861296032746625  0.25151469750858485  1.0000
  N   N4        1.0  0.7594904392864796  0.7713870398391763  0.748485302288203  1.0000
  O   O1        1.0  0.43973164284200106  0.45633304453521645  0.7115540940180097  1.0000
  O   O2        1.0  0.560268357554409  0.5436669556239937  0.288445905897882  1.0000
  O   O3        1.0  0.06849846635661326  0.5358264957235684  0.2507287880734668  1.0000
  O   O4        1.0  0.9315015335531073  0.4641735033982093  0.7492712116704848  1.0000
  O   O5        1.0  0.4848786451832724  0.6365305516335336  0.6064020503810448  1.0000
  O   O6        1.0  0.5151213536579617  0.3634694474956767  0.39359794924380304  1.0000
  O   O7        1.0  0.10887810366769322  0.732101932428734  0.17077703220129803  1.0000
  O   O8        1.0  0.8911218956602303  0.2678980677379088  0.8292229675954899  1.0000
