data_image0
_chemical_formula_structural       H108C96N20O8S8
_chemical_formula_sum              "H108 C96 N20 O8 S8"
_cell_length_a       7.261840661728789
_cell_length_b       15.208928334521714
_cell_length_c       21.370180856724506
_cell_angle_alpha    90.0
_cell_angle_beta     94.35536402556845
_cell_angle_gamma    90.0

_space_group_name_H-M_alt    "P 1"
_space_group_IT_number       1

loop_
  _space_group_symop_operation_xyz
  'x, y, z'

loop_
  _atom_site_type_symbol
  _atom_site_label
  _atom_site_symmetry_multiplicity
  _atom_site_fract_x
  _atom_site_fract_y
  _atom_site_fract_z
  _atom_site_occupancy
  H   H1        1.0  0.2501196715972382  0.05822969248857668  0.26532611473273393  1.0000
  H   H2        1.0  0.749880328403137  0.5582296926686777  0.23467388534109143  1.0000
  H   H3        1.0  0.7498803291391275  0.9417703078716254  0.7346738853944359  1.0000
  H   H4        1.0  0.25011967095218335  0.4417703076915243  0.7653261147515911  1.0000
  H   H5        1.0  0.46848156675818764  0.4239304267983955  0.6728391380578556  1.0000
  H   H6        1.0  0.5315184333331231  0.9239304269784965  0.8271608620881713  1.0000
  H   H7        1.0  0.5315184325971327  0.5760695735618065  0.32716086203482697  1.0000
  H   H8        1.0  0.46848156740324254  0.07606957338170554  0.1728391380389983  1.0000
  H   H9        1.0  0.5809936279594239  0.5205478345262367  0.6500974286875378  1.0000
  H   H10       1.0  0.4190063721284864  0.020547835003644113  0.849902570990461  1.0000
  H   H11       1.0  0.41900637277694175  0.47945216517645695  0.34990257143963194  1.0000
  H   H12       1.0  0.5809936272234335  0.9794521653565579  0.15009742863419342  1.0000
  H   H13       1.0  0.7020794350510268  0.44120887957429017  0.5595613291428553  1.0000
  H   H14       1.0  0.2979205650402841  0.9412088797543912  0.9404386710031719  1.0000
  H   H15       1.0  0.29792056430429364  0.5587911207859119  0.44043867094982736  1.0000
  H   H16       1.0  0.7020794356960816  0.058791120605810855  0.05956132912399799  1.0000
  H   H17       1.0  0.7731904373582855  0.38839603817396545  0.6318674554012585  1.0000
  H   H18       1.0  0.22680956273302522  0.8883960383540666  0.8681325447447685  1.0000
  H   H19       1.0  0.22680956199703478  0.6116039615287281  0.368132544691424  1.0000
  H   H20       1.0  0.7731904380033404  0.11160396200613558  0.13186745538240133  1.0000
  H   H21       1.0  0.2776289208734239  0.4241064069819515  0.5689670400646231  1.0000
  H   H22       1.0  0.7223710792178869  0.9241064071620526  0.9310329600814039  1.0000
  H   H23       1.0  0.7223710784818965  0.575893592720742  0.4310329600280595  1.0000
  H   H24       1.0  0.27762892151847873  0.07589359319814949  0.06896704004576582  1.0000
  H   H25       1.0  0.3920730623305009  0.5207314201108739  0.5471539721314159  1.0000
  H   H26       1.0  0.6079269377608097  0.020731419930772894  0.9528460280146112  1.0000
  H   H27       1.0  0.6079269384058648  0.4792685795918196  0.4528460279957539  1.0000
  H   H28       1.0  0.3920730615945105  0.9792685797719207  0.04715397207807145  1.0000
  H   H29       1.0  0.1609324200445204  0.506874976358578  0.6613036677246252  1.0000
  H   H30       1.0  0.8390675800467904  0.00687497683598548  0.8386963324214016  1.0000
  H   H31       1.0  0.8390675806918451  0.49312502334411557  0.33869633240254454  1.0000
  H   H32       1.0  0.16093241930853003  0.9931250235242166  0.16130366767128076  1.0000
  H   H33       1.0  0.27017188667861375  0.6026468281263184  0.6353979408548008  1.0000
  H   H34       1.0  0.7298281134126969  0.10264682794621734  0.8646020592912261  1.0000
  H   H35       1.0  0.7298281126767064  0.3973531722338837  0.36460205923788175  1.0000
  H   H36       1.0  0.2701718873236687  0.8973531724139847  0.1353979408359436  1.0000
  H   H37       1.0  0.9667857170648416  0.498946424303645  0.560432174214322  1.0000
  H   H38       1.0  0.03321428302646904  0.9989464238262376  0.9395678259317048  1.0000
  H   H39       1.0  0.03321428229047863  0.5010535760565571  0.4395678258783605  1.0000
  H   H40       1.0  0.9667857177098965  0.0010535758764559865  0.06043217419546485  1.0000
  H   H41       1.0  0.07967220771529518  0.5907715252760811  0.5318715265674651  1.0000
  H   H42       1.0  0.9203277923726151  0.09077152509598006  0.9681284731105337  1.0000
  H   H43       1.0  0.92032779301767  0.40922847508412097  0.46812847309167666  1.0000
  H   H44       1.0  0.07967220697930479  0.909228475264222  0.03187152651412062  1.0000
  H   H45       1.0  0.8539931453341685  0.5955283160511279  0.6484462887664042  1.0000
  H   H46       1.0  0.14600685337609684  0.09552831587102682  0.8515537113451356  1.0000
  H   H47       1.0  0.14600685402115174  0.4044716843090742  0.3515537113262784  1.0000
  H   H48       1.0  0.8539931459792234  0.9044716838316668  0.14844628874754695  1.0000
  H   H49       1.0  0.7715499124741598  0.632396373265077  0.5725640467522689  1.0000
  H   H50       1.0  0.2284500876137505  0.13239637308497604  0.92743595292573  1.0000
  H   H51       1.0  0.22845008687776006  0.367603627095125  0.4274359528723855  1.0000
  H   H52       1.0  0.7715499131192147  0.8676036266177175  0.0725640467334117  1.0000
  H   H53       1.0  0.9575286017093806  0.6870667360751039  0.6146020599973586  1.0000
  H   H54       1.0  0.0424713983819302  0.18706673655251144  0.8853979401486682  1.0000
  H   H55       1.0  0.04247139764593979  0.3129332636275896  0.38539794009532385  1.0000
  H   H56       1.0  0.9575286023544354  0.8129332638076906  0.11460205997850152  1.0000
  H   H57       1.0  0.39001361010110985  0.20713380526946046  0.22373766910270268  1.0000
  H   H58       1.0  0.6099863898958648  0.7071338047920529  0.2762623305030945  1.0000
  H   H59       1.0  0.60998638925081  0.7928661950907415  0.7762623305219518  1.0000
  H   H60       1.0  0.3900136108371003  0.2928661949106406  0.7237376691560471  1.0000
  H   H61       1.0  0.20687367806201315  0.9391386793229425  0.7635777115543141  1.0000
  H   H62       1.0  0.7931263206482522  0.43913867914284144  0.7364222885572257  1.0000
  H   H63       1.0  0.7931263212933071  0.06086132103725961  0.2364222885383685  1.0000
  H   H64       1.0  0.20687367870706805  0.5608613205598522  0.26357771153545684  1.0000
  H   H65       1.0  0.11835755007257666  0.866957636329388  0.6533773329459642  1.0000
  H   H66       1.0  0.8816424500153336  0.366957636149287  0.8466226667320346  1.0000
  H   H67       1.0  0.8816424492793431  0.13304236403081404  0.34662266667869024  1.0000
  H   H68       1.0  0.11835755071763157  0.6330423635534066  0.15337733292710704  1.0000
  H   H69       1.0  0.22067181880434922  0.9939347439548171  0.4051851595805094  1.0000
  H   H70       1.0  0.779328181196026  0.49393474377471597  0.094814840493316  1.0000
  H   H71       1.0  0.7793281819320164  0.00606525640538505  0.5948148405466605  1.0000
  H   H72       1.0  0.2206718181592943  0.5060652559279776  0.9051851595993665  1.0000
  H   H73       1.0  0.18346164649224866  0.9386820547766727  0.5169562823819269  1.0000
  H   H74       1.0  0.8165383535990621  0.43868205459657167  0.9830437177641  1.0000
  H   H75       1.0  0.8165383542441169  0.06131794558352934  0.4830437177452429  1.0000
  H   H76       1.0  0.18346164575625823  0.5613179457636304  0.016956282328582494  1.0000
  H   H77       1.0  0.20713180680124602  0.7298520103355512  0.2657691118992162  1.0000
  H   H78       1.0  0.7928681931991293  0.2298520101554503  0.23423088817460913  1.0000
  H   H79       1.0  0.7928681925540744  0.27014798936714224  0.7342308881934663  1.0000
  H   H80       1.0  0.2071318075372364  0.7701479895472433  0.7657691119525607  1.0000
  H   H81       1.0  0.16617029213760814  0.8277721653421095  0.22195594714001649  1.0000
  H   H82       1.0  0.833829707862767  0.32777216516200836  0.27804405293380885  1.0000
  H   H83       1.0  0.8338297085987575  0.17222783501809266  0.7780440529871533  1.0000
  H   H84       1.0  0.16617029149255322  0.6722278351981936  0.7219559471588737  1.0000
  H   H85       1.0  0.9752202011365627  0.7665281572494581  0.24628302640653307  1.0000
  H   H86       1.0  0.02477979886381247  0.2665281570693572  0.25371697366729223  1.0000
  H   H87       1.0  0.02477979959980289  0.23347184245323532  0.7537169737206366  1.0000
  H   H88       1.0  0.9752202004915078  0.7334718426333363  0.7462830264253904  1.0000
  H   H89       1.0  0.26767528771313487  0.8600241688502466  0.33540188059184073  1.0000
  H   H90       1.0  0.7323247122872403  0.3600241686701455  0.16459811948198466  1.0000
  H   H91       1.0  0.7323247130232308  0.13997583150995552  0.664598119535329  1.0000
  H   H92       1.0  0.26767528706807997  0.6399758310325481  0.8354018806106979  1.0000
  H   H93       1.0  0.03918586978994788  0.9006846227887618  0.3150765956734033  1.0000
  H   H94       1.0  0.9608141302104273  0.4006846226086608  0.1849234044004221  1.0000
  H   H95       1.0  0.9608141295653724  0.09931537691393173  0.6849234044192792  1.0000
  H   H96       1.0  0.0391858705259383  0.5993153770940327  0.8150765957267475  1.0000
  H   H97       1.0  0.13078743525445505  0.7269001705337884  0.499598751428698  1.0000
  H   H98       1.0  0.8692125647459201  0.22690017035368742  0.00040124864512732883  1.0000
  H   H99       1.0  0.8692125641008652  0.2730998298264136  0.5004012486639845  1.0000
  H   H100      1.0  0.13078743599044548  0.7730998300065146  0.9995987514820424  1.0000
  H   H101      1.0  0.9271005169170385  0.6985370228805211  0.45139502053571695  1.0000
  H   H102      1.0  0.07289948308333667  0.19853702270042012  0.04860497953810845  1.0000
  H   H103      1.0  0.07289948243828177  0.3014629774796809  0.5486049795569656  1.0000
  H   H104      1.0  0.927100517653029  0.8014629770022734  0.9513950205890613  1.0000
  H   H105      1.0  0.9230201612121037  0.7871995722949474  0.5067196389141693  1.0000
  H   H106      1.0  0.07697983887920701  0.28719957277235497  0.9932803612318577  1.0000
  H   H107      1.0  0.0769798381432166  0.21280042740774607  0.4932803611785133  1.0000
  H   H108      1.0  0.9230201618571586  0.7128004275878471  0.00671963889531202  1.0000
  C   C1        1.0  0.3081493345658502  0.11099105031407104  0.294960167148515  1.0000
  C   C2        1.0  0.691850665434525  0.610991050494172  0.20503983292531033  1.0000
  C   C3        1.0  0.6918506647894701  0.8890089493886224  0.7050398329441676  1.0000
  C   C4        1.0  0.30814933530184063  0.38900894986603  0.7949601672018595  1.0000
  C   C5        1.0  0.5117858338006276  0.4603533849329681  0.6319866803784864  1.0000
  C   C6        1.0  0.488214166290683  0.9603533851130691  0.8680133197675407  1.0000
  C   C7        1.0  0.48821416693573794  0.5396466147697253  0.36801331974868334  1.0000
  C   C8        1.0  0.5117858330646372  0.03964661458962437  0.13198668032514194  1.0000
  C   C9        1.0  0.3235958365283047  0.11062657821728182  0.3615152834598358  1.0000
  C   C10       1.0  0.6764041634720706  0.6106265783973828  0.13848471661398956  1.0000
  C   C11       1.0  0.6764041628270157  0.8893734214854118  0.6384847166328468  1.0000
  C   C12       1.0  0.3235958358832498  0.38937342130531066  0.8615152834786929  1.0000
  C   C13       1.0  0.40608192456498754  0.18693288228249172  0.38847965874458085  1.0000
  C   C14       1.0  0.5939180754353877  0.6869328824625928  0.11152034132924446  1.0000
  C   C15       1.0  0.593918076171378  0.8130671174202019  0.6115203413825888  1.0000
  C   C16       1.0  0.40608192391993264  0.3130671172401008  0.888479658763438  1.0000
  C   C17       1.0  0.41008633467411437  0.17843237342635174  0.45487540407638755  1.0000
  C   C18       1.0  0.5899136653262609  0.6784323736064527  0.045124595997437754  1.0000
  C   C19       1.0  0.5899136660622513  0.8215676269338503  0.5451245960507821  1.0000
  C   C20       1.0  0.4100863340290594  0.3215676267537493  0.9548754040952447  1.0000
  C   C21       1.0  0.46908175312458206  0.2301171570422856  0.5080136402741612  1.0000
  C   C22       1.0  0.5309182469667286  0.7301171572223866  0.9919863598718657  1.0000
  C   C23       1.0  0.5309182462307382  0.769882842660408  0.4919863598185214  1.0000
  C   C24       1.0  0.469081753769637  0.26988284313781546  0.008013640255304006  1.0000
  C   C25       1.0  0.6530798380118712  0.405755016676135  0.5997210028056821  1.0000
  C   C26       1.0  0.34692016207943954  0.9057550161987276  0.9002789973403449  1.0000
  C   C27       1.0  0.34692016272449444  0.5942449836840671  0.4002789973214876  1.0000
  C   C28       1.0  0.6530798372758807  0.094244983503966  0.09972100275233774  1.0000
  C   C29       1.0  0.3449133614436046  0.484613123152821  0.5877573519113415  1.0000
  C   C30       1.0  0.655086638647706  0.9846131233329221  0.9122426482346855  1.0000
  C   C31       1.0  0.6550866392927609  0.5153868765498726  0.4122426482158281  1.0000
  C   C32       1.0  0.34491336070761425  0.015386876369771476  0.08775735185799716  1.0000
  C   C33       1.0  0.20405704138148625  0.5407013596963346  0.6190351284534397  1.0000
  C   C34       1.0  0.7959429587098246  0.04070135951623359  0.8809648716925874  1.0000
  C   C35       1.0  0.7959429593548795  0.45929864066386744  0.38096487167373017  1.0000
  C   C36       1.0  0.20405704064549582  0.9592986401864599  0.1190351284000952  1.0000
  C   C37       1.0  0.034146330366290105  0.5612421817140764  0.5751260314183104  1.0000
  C   C38       1.0  0.9658536697216202  0.06124218153397534  0.9248739682596885  1.0000
  C   C39       1.0  0.9658536689856297  0.4387578186461257  0.424873968206344  1.0000
  C   C40       1.0  0.03414633101134501  0.9387578188262268  0.07512603139945323  1.0000
  C   C41       1.0  0.8967711671498328  0.622044620890609  0.6039099816095362  1.0000
  C   C42       1.0  0.10322883294147787  0.12204462071050796  0.8960900185364907  1.0000
  C   C43       1.0  0.1032288335865328  0.37795537946959307  0.3960900185176336  1.0000
  C   C44       1.0  0.8967711664138425  0.8779553789921857  0.1039099815561918  1.0000
  C   C45       1.0  0.37964114612825584  0.18767061144744096  0.2723528945486173  1.0000
  C   C46       1.0  0.6203588538721193  0.6876706109700335  0.22764710552520806  1.0000
  C   C47       1.0  0.6203588532270644  0.8123293889127611  0.7276471055440652  1.0000
  C   C48       1.0  0.37964114686424627  0.31232938873266003  0.7723528946019617  1.0000
  C   C49       1.0  0.3287601733753821  0.0949028549712994  0.46596213774787937  1.0000
  C   C50       1.0  0.6712398266215927  0.5949028551514005  0.03403786185791792  1.0000
  C   C51       1.0  0.671239827357583  0.9050971447313941  0.5340378619112623  1.0000
  C   C52       1.0  0.3287601727303272  0.40509714455129314  0.9659621377667366  1.0000
  C   C53       1.0  0.4459583248232408  0.19972336401278237  0.5703468325451385  1.0000
  C   C54       1.0  0.5540416752646695  0.6997233641928834  0.9296531671328604  1.0000
  C   C55       1.0  0.5540416745286791  0.8002766363474196  0.4296531670795159  1.0000
  C   C56       1.0  0.4459583254682957  0.3002766361673187  0.07034683252628131  1.0000
  C   C57       1.0  0.36605472556967356  0.1164597288541107  0.5812174289130915  1.0000
  C   C58       1.0  0.6339452745216372  0.6164597290342118  0.9187825712329356  1.0000
  C   C59       1.0  0.6339452737856468  0.8835402715060914  0.4187825711795911  1.0000
  C   C60       1.0  0.36605472621472845  0.38354027132599033  0.08121742889423422  1.0000
  C   C61       1.0  0.3082141646814319  0.06435071416429144  0.5277233500128812  1.0000
  C   C62       1.0  0.6917858354098787  0.5643507143443925  0.9722766501331457  1.0000
  C   C63       1.0  0.6917858346738883  0.9356492855384021  0.4722766500798013  1.0000
  C   C64       1.0  0.3082141653264868  0.43564928535830105  0.027723349994024  1.0000
  C   C65       1.0  0.2393837943855653  0.9870283151986516  0.6119947635198579  1.0000
  C   C66       1.0  0.7606162057057453  0.48702831501855054  0.8880052366261689  1.0000
  C   C67       1.0  0.7606162063508004  0.012971685161550483  0.3880052366073118  1.0000
  C   C68       1.0  0.23938379364957488  0.512971684684143  0.11199476346651357  1.0000
  C   C69       1.0  0.3223172679633472  0.06598211181797632  0.634201405988575  1.0000
  C   C70       1.0  0.6776827321245631  0.5659821119980774  0.8657985936894239  1.0000
  C   C71       1.0  0.6776827313885725  0.9340178878847173  0.3657985936360795  1.0000
  C   C72       1.0  0.3223172686118026  0.4340178877046162  0.13420140643774583  1.0000
  C   C73       1.0  0.22934652919821547  0.9672786311056437  0.7181398472235877  1.0000
  C   C74       1.0  0.7706534708930952  0.4672786315830512  0.7818601529224393  1.0000
  C   C75       1.0  0.7706534701571048  0.03272136859704982  0.2818601528690948  1.0000
  C   C76       1.0  0.22934652984327036  0.5327213687771508  0.2181398472047305  1.0000
  C   C77       1.0  0.18494231876019862  0.9305803254970157  0.6600717947188693  1.0000
  C   C78       1.0  0.815057681331112  0.43058032597442314  0.8399282054271576  1.0000
  C   C79       1.0  0.8150576805951216  0.06941967420567785  0.3399282053738132  1.0000
  C   C80       1.0  0.18494231940525352  0.5694196743857789  0.16007179470001215  1.0000
  C   C81       1.0  0.117127584707252  0.7877704073866149  0.26002252333387926  1.0000
  C   C82       1.0  0.8828724152931232  0.28777040720651387  0.23997747673994607  1.0000
  C   C83       1.0  0.8828724146446678  0.21222959297358718  0.7399774762907751  1.0000
  C   C84       1.0  0.11712758544324241  0.7122295924961797  0.7600225233872236  1.0000
  C   C85       1.0  0.12561604417542532  0.841309938383794  0.31950861946471965  1.0000
  C   C86       1.0  0.8743839558215494  0.3413099382036929  0.18049138014107763  1.0000
  C   C87       1.0  0.8743839565575399  0.1586900613188996  0.6804913801944221  1.0000
  C   C88       1.0  0.12561604353037042  0.6586900614990007  0.8195086194835768  1.0000
  C   C89       1.0  0.06729861731750213  0.816663082816124  0.42618822926762423  1.0000
  C   C90       1.0  0.9327013826794726  0.31666308263602294  0.073811770338173  1.0000
  C   C91       1.0  0.932701383415463  0.18333691688656956  0.5738117703915174  1.0000
  C   C92       1.0  0.06729861667244721  0.6833369170666705  0.9261882292864814  1.0000
  C   C93       1.0  0.006043923544128999  0.7530160119174601  0.47353757905405747  1.0000
  C   C94       1.0  0.9939560764562463  0.25301601173735916  0.026462421019767906  1.0000
  C   C95       1.0  0.9939560771922367  0.2469839884427419  0.5264624210731124  1.0000
  C   C96       1.0  0.006043922899074093  0.7469839879653344  0.9735375790729146  1.0000
  N   N1        1.0  0.5501141467456293  0.3103428878211249  0.512010640803812  1.0000
  N   N2        1.0  0.4498858533456813  0.810342888001226  0.9879893593422149  1.0000
  N   N3        1.0  0.4498858539907362  0.6896571118815686  0.4879893593233577  1.0000
  N   N4        1.0  0.5501141460096389  0.18965711170146762  0.012010640750467623  1.0000
  N   N5        1.0  0.2774268366755757  0.055449299349106355  0.40914158007386353  1.0000
  N   N6        1.0  0.7225731633247995  0.5554492988716988  0.09085841999996183  1.0000
  N   N7        1.0  0.7225731626797446  0.9445507010110957  0.5908584200188189  1.0000
  N   N8        1.0  0.27742683741156615  0.4445507008309947  0.9091415801272079  1.0000
  N   N9        1.0  0.2325727928451334  0.9869641969400504  0.5473911245742475  1.0000
  N   N10       1.0  0.7674272058617315  0.48696419675994934  0.9526088750692642  1.0000
  N   N11       1.0  0.7674272065067864  0.013035802762643161  0.4526088750504069  1.0000
  N   N12       1.0  0.2325727934901883  0.5130358029427442  0.047391124555390386  1.0000
  N   N13       1.0  0.573008149748769  0.32462233376387745  0.574052012870484  1.0000
  N   N14       1.0  0.42699185033914117  0.8246223339439785  0.9259479868075148  1.0000
  N   N15       1.0  0.4269918496031507  0.6753776659388161  0.42594798675417034  1.0000
  N   N16       1.0  0.573008150393824  0.17537766575871508  0.07405201285162684  1.0000
  N   N17       1.0  0.5125279471841008  0.2619044282665604  0.6113045048905813  1.0000
  N   N18       1.0  0.4874720529038095  0.7619044284466614  0.8886954947874176  1.0000
  N   N19       1.0  0.48747205354886436  0.7380955714361331  0.3886954947685604  1.0000
  N   N20       1.0  0.5125279464481104  0.23809557125603212  0.1113045048372369  1.0000
  O   O1        1.0  0.05384742525703364  0.7853015266624701  0.3677418647849144  1.0000
  O   O2        1.0  0.9461525747433416  0.28530152648236906  0.1322581352889109  1.0000
  O   O3        1.0  0.9461525740982867  0.21469847369773193  0.6322581353077681  1.0000
  O   O4        1.0  0.05384742599302405  0.7146984738778329  0.8677418648382589  1.0000
  O   O5        1.0  0.1312801691042236  0.8901717966064543  0.4397495036422234  1.0000
  O   O6        1.0  0.8687198308961516  0.39017179642635313  0.06025049643160194  1.0000
  O   O7        1.0  0.8687198316287416  0.10982820309623935  0.5602504960169182  1.0000
  O   O8        1.0  0.13128016845916868  0.6098282032763404  0.9397495036610805  1.0000
  S   S1        1.0  0.3368440668645881  0.06909477162928897  0.7149163695850999  1.0000
  S   S2        1.0  0.6631559332267226  0.56909477180939  0.785083630560927  1.0000
  S   S3        1.0  0.6631559324907322  0.9309052280734046  0.28508363050758273  1.0000
  S   S4        1.0  0.33684406750964296  0.4309052285508121  0.21491636956624263  1.0000
  S   S5        1.0  0.46514977759508314  0.25854948905732095  0.3311682742388329  1.0000
  S   S6        1.0  0.534850222405292  0.7585494892374219  0.16883172583499245  1.0000
  S   S7        1.0  0.5348502231412824  0.7414505106453726  0.668831725888337  1.0000
  S   S8        1.0  0.46514977695002824  0.24145051046527158  0.83116827425769  1.0000
