data_image0
_chemical_formula_structural       H40C56N12O24Cl12
_chemical_formula_sum              "H40 C56 N12 O24 Cl12"
_cell_length_a       9.041157473041833
_cell_length_b       15.171627683011616
_cell_length_c       12.841866535297761
_cell_angle_alpha    90.0
_cell_angle_beta     97.414023181018
_cell_angle_gamma    90.0

_space_group_name_H-M_alt    "P 1"
_space_group_IT_number       1

loop_
  _space_group_symop_operation_xyz
  'x, y, z'

loop_
  _atom_site_type_symbol
  _atom_site_label
  _atom_site_symmetry_multiplicity
  _atom_site_fract_x
  _atom_site_fract_y
  _atom_site_fract_z
  _atom_site_occupancy
  H   H1        1.0  0.1391585592408149  0.6903224557591446  0.8958889616146153  1.0000
  H   H2        1.0  0.36084144043012717  0.6903224557591446  0.6041110377561206  1.0000
  H   H3        1.0  0.8608414405074613  0.3096775447014773  0.10411103843891284  1.0000
  H   H4        1.0  0.6391585593181489  0.3096775447014773  0.39588896229740744  1.0000
  H   H5        1.0  0.10536670486727782  0.7199020433535931  0.024194514691831804  1.0000
  H   H6        1.0  0.3946332956299289  0.7199020433535931  0.4758054857291271  1.0000
  H   H7        1.0  0.8946332959876159  0.28009795710702895  0.9758054853648243  1.0000
  H   H8        1.0  0.6053667041183473  0.28009795710702895  0.5241945143244009  1.0000
  H   H9        1.0  0.9569456740905705  0.7198052877496017  0.9221207816471881  1.0000
  H   H10       1.0  0.5430543250482947  0.7198052877496017  0.5778792188241708  1.0000
  H   H11       1.0  0.043054325657705596  0.28019471271102014  0.07787921840633975  1.0000
  H   H12       1.0  0.45694567469998143  0.28019471271102014  0.42212078122935726  1.0000
  H   H13       1.0  0.8609802784014927  0.6196929232931008  0.07638049123252207  1.0000
  H   H14       1.0  0.6390197223912153  0.6196929232931008  0.42361950872166415  1.0000
  H   H15       1.0  0.1390197213467834  0.3803070765083962  0.923619508821006  1.0000
  H   H16       1.0  0.36098027846367836  0.3803070765083962  0.5763804913349918  1.0000
  H   H17       1.0  0.812435973235589  0.46357742866808094  0.11851419924781592  1.0000
  H   H18       1.0  0.6875640264505015  0.46357742866808094  0.3814858007032424  1.0000
  H   H19       1.0  0.18756402651268714  0.5364225717925409  0.881485800805712  1.0000
  H   H20       1.0  0.31243597329777456  0.5364225717925409  0.6185141993502857  1.0000
  H   H21       1.0  0.23230217126923328  0.8400929686846865  0.41691592900521673  1.0000
  H   H22       1.0  0.2676978290884538  0.8400929686846865  0.08308407063048032  1.0000
  H   H23       1.0  0.7676978294461408  0.15990703111681037  0.5830840702661774  1.0000
  H   H24       1.0  0.7323021706598224  0.15990703111681037  0.9169159294230478  1.0000
  H   H25       1.0  0.051244973828803296  0.7930050012677198  0.39274112132614714  1.0000
  H   H26       1.0  0.44875502652888377  0.7930050012677198  0.10725887830954992  1.0000
  H   H27       1.0  0.9487550270260904  0.20699499853377698  0.6072588787305089  1.0000
  H   H28       1.0  0.5512449732193924  0.20699499853377698  0.8927411217439781  1.0000
  H   H29       1.0  0.15055944848707487  0.7884408133343752  0.5196061267119036  1.0000
  H   H30       1.0  0.34944055132338686  0.7884408133343752  0.9803938734440941  1.0000
  H   H31       1.0  0.8494405512612012  0.21155918646712168  0.4803938733416243  1.0000
  H   H32       1.0  0.6505594484248893  0.21155918646712168  0.019606126609433984  1.0000
  H   H33       1.0  0.2385341092962628  0.9953465320605863  0.4242652266155066  1.0000
  H   H34       1.0  0.26146589120094393  0.9953465320605863  0.07573477380545239  1.0000
  H   H35       1.0  0.7614658904520133  0.004653468400035607  0.5757347734380215  1.0000
  H   H36       1.0  0.7385341096539498  0.004653468400035607  0.9242652262512037  1.0000
  H   H37       1.0  0.13237095629588358  0.1389409623042874  0.4685067797290596  1.0000
  H   H38       1.0  0.3676290442013231  0.1389409623042874  0.031493220691899415  1.0000
  H   H39       1.0  0.86762904455901  0.8610590374972095  0.5314932203275965  1.0000
  H   H40       1.0  0.6323709555469531  0.8610590374972095  0.9685067793616288  1.0000
  C   C1        1.0  0.24999999969529457  0.5558144627713473  0.2500000002089155  1.0000
  C   C2        1.0  0.7500000000529815  0.4441855370301496  0.7499999998446124  1.0000
  C   C3        1.0  0.1473510271198408  0.5108826061345462  0.3035065120141362  1.0000
  C   C4        1.0  0.35264897213122864  0.5108826061345462  0.1964934876184329  1.0000
  C   C5        1.0  0.8526489726284353  0.48911739366695073  0.6964934880393918  1.0000
  C   C6        1.0  0.6473510276170474  0.48911739366695073  0.8035065124350951  1.0000
  C   C7        1.0  0.15060808594003483  0.4188837455532974  0.3033597997228591  1.0000
  C   C8        1.0  0.3493919144176522  0.4188837455532974  0.19664019991283796  1.0000
  C   C9        1.0  0.8493919138082412  0.5811162549073245  0.696640200330669  1.0000
  C   C10       1.0  0.650608085330624  0.5811162549073245  0.8033598001406902  1.0000
  C   C11       1.0  0.24999999969529457  0.37159355988631165  0.2500000002089155  1.0000
  C   C12       1.0  0.7500000000529815  0.6284064405743103  0.7499999998446124  1.0000
  C   C13       1.0  0.7500000004661138  0.8824427661767154  0.2500000003697241  1.0000
  C   C14       1.0  0.25000000038877984  0.11755723362478157  0.7499999996869318  1.0000
  C   C15       1.0  0.8649643974163406  0.9275752393896407  0.2099426369358439  1.0000
  C   C16       1.0  0.6350356033763676  0.9275752393896407  0.29005736301834234  1.0000
  C   C17       1.0  0.1350356034385531  0.07242476107098117  0.790057363120812  1.0000
  C   C18       1.0  0.36496439747852627  0.07242476107098117  0.7099426370383137  1.0000
  C   C19       1.0  0.8619049251762337  0.019515622594109588  0.20965989056263837  1.0000
  C   C20       1.0  0.6380950756164743  0.019515622594109588  0.29034010939154786  1.0000
  C   C21       1.0  0.13809507567865992  0.9804843772073872  0.7903401094940176  1.0000
  C   C22       1.0  0.3619049252384194  0.9804843772073872  0.7096598906651082  1.0000
  C   C23       1.0  0.7500000004661138  0.06684918989513958  0.2500000003697241  1.0000
  C   C24       1.0  0.25000000038877984  0.9331508105654823  0.7499999996869318  1.0000
  C   C25       1.0  0.05917123696210677  0.6843680939802068  0.9528399460209276  1.0000
  C   C26       1.0  0.440828762848355  0.6843680939802068  0.5471600541350702  1.0000
  C   C27       1.0  0.9408287627861692  0.31563190582129014  0.047160054032600436  1.0000
  C   C28       1.0  0.5591712368999212  0.31563190582129014  0.45283994591845783  1.0000
  C   C29       1.0  0.028334559430471147  0.5895416943308832  0.9763704669600214  1.0000
  C   C30       1.0  0.471665440240471  0.5895416943308832  0.5236295324107145  1.0000
  C   C31       1.0  0.9716654401782855  0.4104583054706136  0.023629532308244747  1.0000
  C   C32       1.0  0.5283345595078052  0.4104583054706136  0.4763704676428136  1.0000
  C   C33       1.0  0.9222145693811907  0.567216023211279  0.04261348636552998  1.0000
  C   C34       1.0  0.5777854314115174  0.567216023211279  0.45738651358865634  1.0000
  C   C35       1.0  0.07778543147370295  0.43278397659021783  0.957386513691126  1.0000
  C   C36       1.0  0.4222145694433764  0.43278397659021783  0.5426134864679997  1.0000
  C   C37       1.0  0.8945983469350429  0.4792984874090014  0.06594428833710438  1.0000
  C   C38       1.0  0.6054016527510475  0.4792984874090014  0.4340557116139539  1.0000
  C   C39       1.0  0.10540165281323322  0.5207015123924954  0.9340557117164237  1.0000
  C   C40       1.0  0.3945983469972285  0.5207015123924954  0.5659442884395741  1.0000
  C   C41       1.0  0.12748796473886356  0.8305281788656949  0.4497354882869751  1.0000
  C   C42       1.0  0.3725120357583431  0.8305281788656949  0.05026451213398382  1.0000
  C   C43       1.0  0.8725120361160302  0.1694718209358019  0.5502645117696808  1.0000
  C   C44       1.0  0.627487963989933  0.1694718209358019  0.9497354879195442  1.0000
  C   C45       1.0  0.06182913616435728  0.917624532507409  0.475430610439532  1.0000
  C   C46       1.0  0.4381708643328494  0.917624532507409  0.024569389981426933  1.0000
  C   C47       1.0  0.9381708646905365  0.08237546729408778  0.524569389617124  1.0000
  C   C48       1.0  0.5618291354154267  0.08237546729408778  0.9754306100721011  1.0000
  C   C49       1.0  0.1339067999943869  0.9971154951910257  0.45804489403515125  1.0000
  C   C50       1.0  0.3660931993962022  0.9971154951910257  0.04195510638267973  1.0000
  C   C51       1.0  0.8660931997538892  0.0028845052695962927  0.5419551060183768  1.0000
  C   C52       1.0  0.6339068003520739  0.0028845052695962927  0.9580448936708483  1.0000
  C   C53       1.0  0.07357605162195494  0.07803810077185992  0.482362057426525  1.0000
  C   C54       1.0  0.4264239476291145  0.07803810077185992  0.017637942206044126  1.0000
  C   C55       1.0  0.9264239481263211  0.921961899688762  0.5176379426270031  1.0000
  C   C56       1.0  0.573576051979642  0.921961899688762  0.982362057062222  1.0000
  N   N1        1.0  0.24999999969529457  0.6528105056974338  0.2500000002089155  1.0000
  N   N2        1.0  0.7500000000529815  0.34718949410406297  0.7499999998446124  1.0000
  N   N3        1.0  0.04430523297128343  0.36993421452627556  0.360237581453463  1.0000
  N   N4        1.0  0.4556947664193057  0.36993421452627556  0.139762418964368  1.0000
  N   N5        1.0  0.9556947667769926  0.6300657852752213  0.6397624186000651  1.0000
  N   N6        1.0  0.5443052333289705  0.6300657852752213  0.8602375810891602  1.0000
  N   N7        1.0  0.9809937078679521  0.06817909400441277  0.16539187153731613  1.0000
  N   N8        1.0  0.5190062919576578  0.06817909400441277  0.33460812919900407  1.0000
  N   N9        1.0  0.019006291880323777  0.9318209064562091  0.8346081285162118  1.0000
  N   N10       1.0  0.48099370779061834  0.9318209064562091  0.6653918708545239  1.0000
  N   N11       1.0  0.7500000004661138  0.784877643901966  0.2500000003697241  1.0000
  N   N12       1.0  0.25000000038877984  0.21512235655865594  0.7499999996869318  1.0000
  O   O1        1.0  0.13297000038525505  0.6896834939942935  0.21366939902026025  1.0000
  O   O2        1.0  0.367029999972432  0.6896834939942935  0.2863306006154368  1.0000
  O   O3        1.0  0.867029999363021  0.3103165064663283  0.7863306010332678  1.0000
  O   O4        1.0  0.6329700008824617  0.3103165064663283  0.7136693994412192  1.0000
  O   O5        1.0  0.9139612357954637  0.3662596457084272  0.31769566714216163  1.0000
  O   O6        1.0  0.5860387638906268  0.3662596457084272  0.18230433280889666  1.0000
  O   O7        1.0  0.08603876395281249  0.6337403547521948  0.6823043329113664  1.0000
  O   O8        1.0  0.41396123585764927  0.6337403547521948  0.8176956672446314  1.0000
  O   O9        1.0  0.09454220559610392  0.33679689659940937  0.44517592553061397  1.0000
  O   O10       1.0  0.40545779365496554  0.33679689659940937  0.05482407410195515  1.0000
  O   O11       1.0  0.9054577941521721  0.6632031032020874  0.554824074522914  1.0000
  O   O12       1.0  0.5945422060933105  0.6632031032020874  0.945175925951573  1.0000
  O   O13       1.0  0.7819986409488812  0.7482998467404  0.33577780134651036  1.0000
  O   O14       1.0  0.7180013587372094  0.7482998467404  0.1642221986045479  1.0000
  O   O15       1.0  0.218001358799395  0.25170015372022203  0.6642221987070176  1.0000
  O   O16       1.0  0.28199864101106675  0.25170015372022203  0.8357778014489802  1.0000
  O   O17       1.0  0.956278501127366  0.08828563869253332  0.0717644070468018  1.0000
  O   O18       1.0  0.5437214996653422  0.08828563869253332  0.4282355929073844  1.0000
  O   O19       1.0  0.04372149972752784  0.9117143611089636  0.9282355930098543  1.0000
  O   O20       1.0  0.45627850118955154  0.9117143611089636  0.5717644071492716  1.0000
  O   O21       1.0  0.09494515981372652  0.08448736330613385  0.22568258657283202  1.0000
  O   O22       1.0  0.4050548394373429  0.08448736330613385  0.27431741305973706  1.0000
  O   O23       1.0  0.9050548399345495  0.915512636495363  0.774317413480696  1.0000
  O   O24       1.0  0.5949451601714136  0.915512636495363  0.7256825862085291  1.0000
  Cl  Cl1       1.0  0.025769275946373925  0.5658365588296534  0.3711263578400424  1.0000
  Cl  Cl2       1.0  0.4742307233046956  0.5658365588296534  0.1288736417925267  1.0000
  Cl  Cl3       1.0  0.9742307238019022  0.43416344163096854  0.6288736422134856  1.0000
  Cl  Cl4       1.0  0.5257692764435806  0.43416344163096854  0.8711263582610014  1.0000
  Cl  Cl5       1.0  0.24999999969529457  0.25932250132960155  0.2500000002089155  1.0000
  Cl  Cl6       1.0  0.7500000000529815  0.7406774984718952  0.7499999998446124  1.0000
  Cl  Cl7       1.0  0.007063334628687844  0.8724308700787056  0.16430410676698143  1.0000
  Cl  Cl8       1.0  0.4929366657289992  0.8724308700787056  0.3356958928687156  1.0000
  Cl  Cl9       1.0  0.9929366662262058  0.12756912972279127  0.8356958932896745  1.0000
  Cl  Cl10      1.0  0.507063334019277  0.12756912972279127  0.6643041071848125  1.0000
  Cl  Cl11      1.0  0.7500000004661138  0.17933572697981667  0.2500000003697241  1.0000
  Cl  Cl12      1.0  0.25000000038877984  0.8206642734808053  0.7499999996869318  1.0000
