data_image0
_chemical_formula_structural       H52C44N8O12Br4
_chemical_formula_sum              "H52 C44 N8 O12 Br4"
_cell_length_a       6.913848019768501
_cell_length_b       14.076565389225138
_cell_length_c       12.529421294516482
_cell_angle_alpha    90.0
_cell_angle_beta     98.97893619237738
_cell_angle_gamma    90.0

_space_group_name_H-M_alt    "P 1"
_space_group_IT_number       1

loop_
  _space_group_symop_operation_xyz
  'x, y, z'

loop_
  _atom_site_type_symbol
  _atom_site_label
  _atom_site_symmetry_multiplicity
  _atom_site_fract_x
  _atom_site_fract_y
  _atom_site_fract_z
  _atom_site_occupancy
  H   H1        1.0  0.6286165854496941  0.5511793165070565  0.2098706309658271  1.0000
  H   H2        1.0  0.8713834145078693  0.05117931683473371  0.2901293694603935  1.0000
  H   H3        1.0  0.3713834149361666  0.44882068354798965  0.7901293690842558  1.0000
  H   H4        1.0  0.1286165858779915  0.9488206832203125  0.7098706305896894  1.0000
  H   H5        1.0  0.5299449554802521  0.45293128001808397  0.2719853924374572  1.0000
  H   H6        1.0  0.9700550444773114  0.9529312804008073  0.22801460798876347  1.0000
  H   H7        1.0  0.4700550434581253  0.5470687193265616  0.728014607608636  1.0000
  H   H8        1.0  0.029944955908549384  0.04706871965423887  0.7719853920613194  1.0000
  H   H9        1.0  0.8159185796954329  0.4508318857991916  0.4087928732052561  1.0000
  H   H10       1.0  0.6840814202621307  0.9508318854715143  0.09120712722096454  1.0000
  H   H11       1.0  0.18408142069042788  0.5491681142558547  0.5912071268448268  1.0000
  H   H12       1.0  0.3159185801237302  0.04916811387313127  0.9087928728291184  1.0000
  H   H13       1.0  0.9114675374844273  0.5492197127800627  0.34863229932023404  1.0000
  H   H14       1.0  0.5885324624731363  0.04921971310773974  0.1513677011059866  1.0000
  H   H15       1.0  0.08853246290143352  0.4507802872749837  0.6513677007298488  1.0000
  H   H16       1.0  0.41146753791272456  0.9507802869473065  0.8486322989440963  1.0000
  H   H17       1.0  0.9893950634297547  0.7112740361838464  0.6590501283227157  1.0000
  H   H18       1.0  0.5106049371490365  0.21127403580112294  0.8409498717524085  1.0000
  H   H19       1.0  0.010604936956106117  0.2887259638711999  0.3409498717273671  1.0000
  H   H20       1.0  0.4893950632368243  0.7887259642539233  0.15905012829767434  1.0000
  H   H21       1.0  0.549973250027948  0.7031212022483861  0.9523959046516459  1.0000
  H   H22       1.0  0.9500267491033598  0.20312120257606325  0.5476040954194886  1.0000
  H   H23       1.0  0.45002674891042954  0.2968787970962596  0.047604095394447175  1.0000
  H   H24       1.0  0.0499732498350176  0.796878797478983  0.4523959046266047  1.0000
  H   H25       1.0  0.552135525591414  0.8000055133207387  0.7841181149224318  1.0000
  H   H26       1.0  0.9478644749873771  0.30000551293801525  0.7158818851526927  1.0000
  H   H27       1.0  0.44786447479444674  0.19999448673430759  0.21588188512765116  1.0000
  H   H28       1.0  0.05213552539848362  0.6999944871170309  0.2841181148973903  1.0000
  H   H29       1.0  0.13684041536265246  0.6050905554361838  0.041315196921308105  1.0000
  H   H30       1.0  0.36315958483027794  0.10509055505346043  0.4586848031037334  1.0000
  H   H31       1.0  0.8631595850232083  0.3949094446188624  0.9586848031287748  1.0000
  H   H32       1.0  0.6368404155555829  0.8949094442911852  0.5413151969463496  1.0000
  H   H33       1.0  0.3945612810003499  0.5909431974341789  0.054173201065196526  1.0000
  H   H34       1.0  0.10543871919258056  0.09094319776185607  0.4458267989598449  1.0000
  H   H35       1.0  0.605438719385511  0.4090568019104668  0.9458267989848862  1.0000
  H   H36       1.0  0.8945612811932803  0.9090568022931901  0.554173201090238  1.0000
  H   H37       1.0  0.23377012981454406  0.5101430165270798  0.9734867200803174  1.0000
  H   H38       1.0  0.2662298697735243  0.010143016854757027  0.5265132803976514  1.0000
  H   H39       1.0  0.7662298705713168  0.4898569828175658  0.026513279969765473  1.0000
  H   H40       1.0  0.7337701306123366  0.9898569832002893  0.47348671965243144  1.0000
  H   H41       1.0  0.8039654250516801  0.6072003065849073  0.752054823410462  1.0000
  H   H42       1.0  0.6960345740796279  0.10720030691258454  0.7479451766606727  1.0000
  H   H43       1.0  0.19603457388669746  0.39279969275973825  0.24794517663563134  1.0000
  H   H44       1.0  0.30396542630623297  0.8927996931424617  0.2520548233894101  1.0000
  H   H45       1.0  0.8568862126603588  0.6088174155437038  0.8963768770500807  1.0000
  H   H46       1.0  0.6431137879184323  0.108817415871381  0.6036231230250435  1.0000
  H   H47       1.0  0.14311378772550196  0.3911825845113424  0.10362312300000213  1.0000
  H   H48       1.0  0.3568862124674284  0.8911825841836652  0.39637687702503926  1.0000
  H   H49       1.0  0.9473113952218162  0.5160945855130861  0.8226712758137222  1.0000
  H   H50       1.0  0.5526886039094917  0.016094585130362618  0.6773287242574125  1.0000
  H   H51       1.0  0.05268860371656131  0.4839054145419602  0.17732872423237106  1.0000
  H   H52       1.0  0.4473113964763691  0.9839054149246836  0.32267127579267035  1.0000
  C   C1        1.0  0.4521643539743018  0.5882505512558  0.3294456982441872  1.0000
  C   C2        1.0  0.04783564621862856  0.08825055087307644  0.17055430178085423  1.0000
  C   C3        1.0  0.547835646411559  0.4117494487992464  0.6705543018058958  1.0000
  C   C4        1.0  0.9521643541672322  0.9117494491819698  0.8294456982692286  1.0000
  C   C5        1.0  0.598105214592331  0.5230218207657025  0.2872856289112177  1.0000
  C   C6        1.0  0.9018947853652325  0.023021820382978998  0.21271437151500283  1.0000
  C   C7        1.0  0.4018947857935298  0.47697817928934383  0.712714371138865  1.0000
  C   C8        1.0  0.09810521357314489  0.9769781796720672  0.7872856285310903  1.0000
  C   C9        1.0  0.7784223345269279  0.5215461674777278  0.37521316551229184  1.0000
  C   C10       1.0  0.7215776652092422  0.02154616780540493  0.12478683410591544  1.0000
  C   C11       1.0  0.22157766563753947  0.47845383257731844  0.6247868337297777  1.0000
  C   C12       1.0  0.27842233372913533  0.9784538322496412  0.8752131659401777  1.0000
  C   C13       1.0  0.72601493707907  0.5843944501047655  0.4644342566800526  1.0000
  C   C14       1.0  0.7739850628784934  0.08439444972204217  0.03556574374616801  1.0000
  C   C15       1.0  0.2739850633067908  0.41560554995028065  0.5355657433700303  1.0000
  C   C16       1.0  0.22601493605988396  0.9156055503330041  0.9644342562999252  1.0000
  C   C17       1.0  0.10637256092918979  0.7069137218384889  0.7277857688908789  1.0000
  C   C18       1.0  0.39362743988496823  0.2069137221661661  0.7722142307830662  1.0000
  C   C19       1.0  0.893627439456671  0.2930862782165573  0.2722142311592039  1.0000
  C   C20       1.0  0.6063725605008926  0.7930862778888801  0.2277857692670167  1.0000
  C   C21       1.0  0.09664874668677569  0.6498576895044389  0.8171036476702478  1.0000
  C   C22       1.0  0.4033512526798991  0.14985768912171543  0.6828963519997076  1.0000
  C   C23       1.0  0.9033512536990851  0.3501423105506074  0.18289635237983498  1.0000
  C   C24       1.0  0.5966487477059618  0.8501423102229302  0.3171036480503753  1.0000
  C   C25       1.0  0.2592727287119058  0.646614267637131  0.9008024408379139  1.0000
  C   C26       1.0  0.24072727065476893  0.14661426796480825  0.5991975588320416  1.0000
  C   C27       1.0  0.7407272702264717  0.3533857324179151  0.09919755920817931  1.0000
  C   C28       1.0  0.7592727297310918  0.853385732090238  0.4008024412180413  1.0000
  C   C29       1.0  0.4225570609042263  0.701996490391322  0.8891568249766214  1.0000
  C   C30       1.0  0.07744293868384208  0.20199649000859857  0.6108431755013475  1.0000
  C   C31       1.0  0.5774429394816346  0.29800350966372424  0.11084317507346157  1.0000
  C   C32       1.0  0.9225570602545354  0.7980035100464478  0.3891568245447458  1.0000
  C   C33       1.0  0.42753222147762304  0.7569239118624597  0.7980242588268454  1.0000
  C   C34       1.0  0.07246777811044532  0.25692391147973637  0.7019757416511234  1.0000
  C   C35       1.0  0.5724677774607545  0.24307608819258647  0.20197574121924786  1.0000
  C   C36       1.0  0.9275322222754155  0.7430760885753098  0.29802425839895946  1.0000
  C   C37       1.0  0.2571532338588132  0.5850376183599232  0.9977176064394156  1.0000
  C   C38       1.0  0.24284676695534488  0.08503761868760036  0.5022823932345295  1.0000
  C   C39       1.0  0.7428467665270476  0.41496238169512306  0.0022823936106672518  1.0000
  C   C40       1.0  0.7571532334305159  0.9149623813674458  0.4977176068155534  1.0000
  C   C41       1.0  0.9159535801286448  0.5926561408499398  0.8219521888237934  1.0000
  C   C42       1.0  0.584046419002663  0.09265614046721633  0.6780478112473411  1.0000
  C   C43       1.0  0.08404641880973263  0.4073438592051065  0.17804781122229976  1.0000
  C   C44       1.0  0.4159535813831978  0.9073438595878299  0.3219521888027417  1.0000
  N   N1        1.0  0.5370679076632926  0.61865013227345  0.4315887197941935  1.0000
  N   N2        1.0  0.9629320920728773  0.11865013260112718  0.0684112798240138  1.0000
  N   N3        1.0  0.4629320927225681  0.38134986778159624  0.5684112802558894  1.0000
  N   N4        1.0  0.03706790831298357  0.881349867453919  0.9315887202260692  1.0000
  N   N5        1.0  0.26892124818222063  0.758787001279149  0.7190282013206465  1.0000
  N   N6        1.0  0.23107875118445415  0.25878700089642565  0.7809717983493091  1.0000
  N   N7        1.0  0.731078750756157  0.2412129987758972  0.2809717987254468  1.0000
  N   N8        1.0  0.7689212492014066  0.7412129991586206  0.21902820170077378  1.0000
  O   O1        1.0  0.289247421280181  0.6111063702076494  0.2832059455115392  1.0000
  O   O2        1.0  0.21075257891274946  0.11110636982492587  0.21679405451350217  1.0000
  O   O3        1.0  0.7107525791056799  0.38889362984739695  0.7167940545385436  1.0000
  O   O4        1.0  0.7892474198042345  0.8888936302301204  0.7832059447245778  1.0000
  O   O5        1.0  0.8267501583847261  0.6032885164232143  0.5512010568244535  1.0000
  O   O6        1.0  0.6732498419726715  0.10328851675089148  0.9487989424426575  1.0000
  O   O7        1.0  0.1732498417797411  0.39671148363183195  0.448798942417616  1.0000
  O   O8        1.0  0.32675015841318933  0.8967114833041547  0.0512010576074254  1.0000
  O   O9        1.0  0.27376171294108437  0.8105250218731123  0.629693892345408  1.0000
  O   O10       1.0  0.22623828664698395  0.3105250222007894  0.8703061081325608  1.0000
  O   O11       1.0  0.7262382874447764  0.18947497818193398  0.3703061077046748  1.0000
  O   O12       1.0  0.7737617122913936  0.6894749778542568  0.12969389191353245  1.0000
  Br  Br1       1.0  0.41540777707946436  0.7070431326677381  0.5192440972488825  1.0000
  Br  Br2       1.0  0.08459222228721028  0.2070431329954153  0.9807559024210728  1.0000
  Br  Br3       1.0  0.584592221858913  0.29295686667690757  0.48075590279721064  1.0000
  Br  Br4       1.0  0.9154077780986506  0.792956867059631  0.01924409762900999  1.0000
