data_image0
_chemical_formula_structural       H44C56N8O12Br4
_chemical_formula_sum              "H44 C56 N8 O12 Br4"
_cell_length_a       8.512527218308437
_cell_length_b       12.265037484888987
_cell_length_c       13.694308283817964
_cell_angle_alpha    101.78892189876977
_cell_angle_beta     97.7503889539956
_cell_angle_gamma    105.67646884566105

_space_group_name_H-M_alt    "P 1"
_space_group_IT_number       1

loop_
  _space_group_symop_operation_xyz
  'x, y, z'

loop_
  _atom_site_type_symbol
  _atom_site_label
  _atom_site_symmetry_multiplicity
  _atom_site_fract_x
  _atom_site_fract_y
  _atom_site_fract_z
  _atom_site_occupancy
  H   H1        1.0  0.07860362767568235  0.21311667796061154  0.8880930618140972  1.0000
  H   H2        1.0  0.9213963730837182  0.7868833220349478  0.11190693846453405  1.0000
  H   H3        1.0  0.7863594974464659  0.22461111075403437  0.8823171364628318  1.0000
  H   H4        1.0  0.2136405021391544  0.775388889241575  0.1176828638200409  1.0000
  H   H5        1.0  0.5525692969055694  0.04814351658267223  0.8700964873643334  1.0000
  H   H6        1.0  0.4474307026800508  0.951856483412937  0.12990351291853938  1.0000
  H   H7        1.0  0.6004034896024929  0.8535433590885797  0.85865089373617  1.0000
  H   H8        1.0  0.39959651115690786  0.14645664090697974  0.1413491065424613  1.0000
  H   H9        1.0  0.039718659657219615  0.20305303340694944  0.3836484008348809  1.0000
  H   H10       1.0  0.9602813396717009  0.7969469663705223  0.6163515986863959  1.0000
  H   H11       1.0  0.7513161740549663  0.2217214238247314  0.37488797036380883  1.0000
  H   H12       1.0  0.24868382553065418  0.7782785761708779  0.625112029919064  1.0000
  H   H13       1.0  0.509864547875776  0.04893718042010987  0.3615553224224856  1.0000
  H   H14       1.0  0.4901354517098444  0.9510628195754994  0.6384446778603872  1.0000
  H   H15       1.0  0.5466155470646819  0.8523881783574482  0.35214346044991596  1.0000
  H   H16       1.0  0.45338445343801903  0.14761182141997378  0.6478565390671192  1.0000
  H   H17       1.0  0.5855387372746736  0.7511265997779508  0.05066401833807736  1.0000
  H   H18       1.0  0.41446126348472695  0.2488734002176085  0.9493359819405539  1.0000
  H   H19       1.0  0.5492245615911494  0.6818382555221277  0.2116835608900527  1.0000
  H   H20       1.0  0.45077543773777123  0.31816174425534405  0.7883164386312241  1.0000
  H   H21       1.0  0.3074567451796496  0.5068863508984771  0.20060570833117228  1.0000
  H   H22       1.0  0.6925432555797512  0.49311364909708233  0.799394291947459  1.0000
  H   H23       1.0  0.11803754195814131  0.40294926984693663  0.03259516150760343  1.0000
  H   H24       1.0  0.881962457627479  0.5970507301486727  0.9674048387752694  1.0000
  H   H25       1.0  0.09221419902762652  0.5272728942457537  0.8199470446220055  1.0000
  H   H26       1.0  0.9077858003012941  0.472727105531718  0.18005295489927128  1.0000
  H   H27       1.0  0.03629546444056548  0.3905737426417442  0.8524771164997322  1.0000
  H   H28       1.0  0.9637045351450548  0.6094262573538651  0.14752288378314063  1.0000
  H   H29       1.0  0.21134976325186716  0.43131540454186185  0.7945391901678973  1.0000
  H   H30       1.0  0.7886502360770533  0.5686845952356099  0.20546080935337951  1.0000
  H   H31       1.0  0.5961505231671036  0.7753047271578097  0.4939237963906241  1.0000
  H   H32       1.0  0.4038494764185168  0.22469527283779958  0.5060762038922487  1.0000
  H   H33       1.0  0.667170357679212  0.763383411294935  0.674899319198251  1.0000
  H   H34       1.0  0.3328296416497087  0.23661658848253678  0.32510068032302586  1.0000
  H   H35       1.0  0.4822990168962043  0.5992597070468237  0.7316137275683697  1.0000
  H   H36       1.0  0.517700982689416  0.4007402929487856  0.2683862727145031  1.0000
  H   H37       1.0  0.23843625546355587  0.4544196173468868  0.6038856827200803  1.0000
  H   H38       1.0  0.7615637441942344  0.5455803832781119  0.396114316803634  1.0000
  H   H39       1.0  0.06070899054065068  0.5115146987104304  0.3768207408415104  1.0000
  H   H40       1.0  0.9392910090449698  0.488485301285179  0.6231792594413625  1.0000
  H   H41       1.0  0.061035652364646246  0.3955579080281289  0.43741734576781743  1.0000
  H   H42       1.0  0.9389643472209741  0.6044420919674804  0.5625826545150554  1.0000
  H   H43       1.0  0.17578178215470158  0.41668714415724556  0.3386651459428529  1.0000
  H   H44       1.0  0.8242182186046991  0.5833128558383139  0.6613348543357783  1.0000
  C   C1        1.0  0.9302227506776085  0.8250976379312028  0.8569491856044533  1.0000
  C   C2        1.0  0.06977724890801187  0.1749023620644066  0.14305081467841949  1.0000
  C   C3        1.0  0.8638380241087715  0.9265278568060968  0.864502253682075  1.0000
  C   C4        1.0  0.1361619754768489  0.07347214318951252  0.13549774660079789  1.0000
  C   C5        1.0  0.9974203655248438  0.026934443487515582  0.8740155073351031  1.0000
  C   C6        1.0  0.0025796340607765014  0.9730655565080939  0.12598449294776967  1.0000
  C   C7        1.0  0.15274984659605806  0.9925244488072047  0.8755158179158575  1.0000
  C   C8        1.0  0.8472501541633427  0.007475551188354788  0.12448418236277371  1.0000
  C   C9        1.0  0.9737720988842521  0.1355948877815062  0.880832937844001  1.0000
  C   C10       1.0  0.026227901875148705  0.8644051122140534  0.11916706243463034  1.0000
  C   C11       1.0  0.8106623357243238  0.14107133926804555  0.8779346584919729  1.0000
  C   C12       1.0  0.18933766477837707  0.8589286605093763  0.12206534102506225  1.0000
  C   C13       1.0  0.6775417830445247  0.04112169785649489  0.8700202297154431  1.0000
  C   C14       1.0  0.32245821654109563  0.9588783021391144  0.1299797705674297  1.0000
  C   C15       1.0  0.702752097360228  0.9315666519797278  0.8632969472127473  1.0000
  C   C16       1.0  0.29724790314247285  0.06843334779769397  0.13670305230428784  1.0000
  C   C17       1.0  0.8744794867113451  0.8165819198764196  0.3594646473575401  1.0000
  C   C18       1.0  0.12552051404805556  0.18341808011913982  0.6405353529210911  1.0000
  C   C19       1.0  0.8130499907386649  0.9197983789445888  0.36320794939351886  1.0000
  C   C20       1.0  0.18695000884695545  0.08020162105102041  0.636792050889354  1.0000
  C   C21       1.0  0.9502382547081215  0.017606438783109465  0.37191913934321535  1.0000
  C   C22       1.0  0.04976174605127936  0.98239356121245  0.6280808609354158  1.0000
  C   C23       1.0  0.10173860335389204  0.9786657339974867  0.37290606470146503  1.0000
  C   C24       1.0  0.8982613962317283  0.021334265998122465  0.6270939355814077  1.0000
  C   C25       1.0  0.932199305442896  0.12754328642723714  0.3768869948128144  1.0000
  C   C26       1.0  0.06780069388602468  0.8724567133502346  0.6231130047084623  1.0000
  C   C27       1.0  0.7709026135159124  0.13707086796464774  0.37247521346663764  1.0000
  C   C28       1.0  0.2290973860697079  0.8629291320309617  0.6275247868162352  1.0000
  C   C29       1.0  0.6338685537083238  0.03947952196302609  0.3640142232301444  1.0000
  C   C30       1.0  0.36613144587729646  0.9605204780325831  0.6359857770527284  1.0000
  C   C31       1.0  0.653315700721151  0.9286191410883586  0.35914131272878996  1.0000
  C   C32       1.0  0.34668429978155  0.07138085868906344  0.6408586867882453  1.0000
  C   C33       1.0  0.4883859623341781  0.6733036788527657  0.05259088246864984  1.0000
  C   C34       1.0  0.5116140372514423  0.3266963211428437  0.9474091178142229  1.0000
  C   C35       1.0  0.46379724446300696  0.6351816038352027  0.13932105882823032  1.0000
  C   C36       1.0  0.5362027548659136  0.36481839594226895  0.8606789406930464  1.0000
  C   C37       1.0  0.32953436789234436  0.5369912757953115  0.13298894296112457  1.0000
  C   C38       1.0  0.6704656314365762  0.46300872398216025  0.8670110565601522  1.0000
  C   C39       1.0  0.2230956308140505  0.479992501028699  0.03915010247286802  1.0000
  C   C40       1.0  0.7769043691004396  0.5200074998144372  0.9608498978124423  1.0000
  C   C41       1.0  0.24896670005020693  0.5188725755435839  0.9521513980612173  1.0000
  C   C42       1.0  0.7510332992787137  0.48112742423388777  0.04784860146005943  1.0000
  C   C43       1.0  0.14129185360675622  0.46364614181609576  0.8494787286388  1.0000
  C   C44       1.0  0.8587081457221645  0.5363538579613759  0.1505212708824767  1.0000
  C   C45       1.0  0.5236046135433281  0.7072800569664661  0.5239686961916677  1.0000
  C   C46       1.0  0.4763953860422923  0.2927199430291433  0.4760313040912052  1.0000
  C   C47       1.0  0.5597368295948801  0.6979751106045273  0.6228115553135827  1.0000
  C   C48       1.0  0.44026316973404056  0.30202488917294446  0.37718844420769415  1.0000
  C   C49       1.0  0.4573667046170523  0.6069362521688465  0.6536031924473172  1.0000
  C   C50       1.0  0.5426332947118684  0.39306374760862534  0.34639680707395976  1.0000
  C   C51       1.0  0.3195940748975518  0.5278175095290323  0.5832158013096179  1.0000
  C   C52       1.0  0.6804059244313688  0.4721824902484395  0.41678419821165885  1.0000
  C   C53       1.0  0.2833389342005069  0.5390525278820011  0.48411978449565907  1.0000
  C   C54       1.0  0.7166610653851135  0.46094747211360826  0.5158802157872138  1.0000
  C   C55       1.0  0.1369512848800279  0.4608219348679983  0.4051030221918451  1.0000
  C   C56       1.0  0.8630487147055925  0.5391780651276111  0.5948969780910278  1.0000
  N   N1        1.0  0.10240883253027627  0.8715029690672734  0.8650277804913135  1.0000
  N   N2        1.0  0.8975911670553441  0.1284970309283359  0.13497221979155943  1.0000
  N   N3        1.0  0.0459816614242199  0.8578437952151383  0.3641589717432217  1.0000
  N   N4        1.0  0.9540183379047007  0.14215620456233347  0.6358410277780552  1.0000
  N   N5        1.0  0.3836762376964302  0.6149709974648827  0.9613893153362574  1.0000
  N   N6        1.0  0.61632376221806  0.38502900337825346  0.03861068494905309  1.0000
  N   N7        1.0  0.38865450835683596  0.6289098069282018  0.4566909150681142  1.0000
  N   N8        1.0  0.6113454912287845  0.37109019306740765  0.5433090852147587  1.0000
  O   O1        1.0  0.8542512279613665  0.7211336397912357  0.8441999157828997  1.0000
  O   O2        1.0  0.145748771624254  0.2788663602043736  0.15580008449997335  1.0000
  O   O3        1.0  0.2957288603273624  0.05506530783572087  0.8839219001313335  1.0000
  O   O4        1.0  0.704271139258258  0.9449346921598885  0.11607810015153927  1.0000
  O   O5        1.0  0.7942578608048653  0.7148564977625308  0.35348740035712983  1.0000
  O   O6        1.0  0.20574214002670527  0.2851435028624179  0.6465125991623427  1.0000
  O   O7        1.0  0.2461232814654755  0.037591580939550666  0.3798985416516651  1.0000
  O   O8        1.0  0.7538767192939252  0.9624084190560088  0.6201014586269661  1.0000
  O   O9        1.0  0.41189892198000005  0.6532716898950317  0.8793411694799335  1.0000
  O   O10       1.0  0.5881010776056204  0.34672831010057764  0.12065883080293945  1.0000
  O   O11       1.0  0.35757490819076315  0.6401629089160016  0.36208636203288974  1.0000
  O   O12       1.0  0.6424250925686377  0.35983709107955786  0.6379136382457417  1.0000
  Br  Br1       1.0  0.24693050824127105  0.7747759838204351  0.8656616526486709  1.0000
  Br  Br2       1.0  0.7530694913443494  0.22522401617517424  0.134338347634202  1.0000
  Br  Br3       1.0  0.1878158725431912  0.7585284555567144  0.3609097038504436  1.0000
  Br  Br4       1.0  0.8121841282162094  0.24147154443884494  0.6390902964281875  1.0000
