data_image0
_chemical_formula_structural       H44C56N8O12Br4
_chemical_formula_sum              "H44 C56 N8 O12 Br4"
_cell_length_a       7.4319329802132845
_cell_length_b       23.51223030107198
_cell_length_c       7.51511691951062
_cell_angle_alpha    90.0
_cell_angle_beta     96.65534389051709
_cell_angle_gamma    90.0

_space_group_name_H-M_alt    "P 1"
_space_group_IT_number       1

loop_
  _space_group_symop_operation_xyz
  'x, y, z'

loop_
  _atom_site_type_symbol
  _atom_site_label
  _atom_site_symmetry_multiplicity
  _atom_site_fract_x
  _atom_site_fract_y
  _atom_site_fract_z
  _atom_site_occupancy
  H   H1        1.0  0.05870017511530574  0.6452583930035891  0.33959702701233907  1.0000
  H   H2        1.0  0.9412998240133958  0.14525839302638532  0.16040297289472344  1.0000
  H   H3        1.0  0.9412998242107418  0.35474160695081847  0.6604029722324277  1.0000
  H   H4        1.0  0.05870017546417406  0.8547416069280221  0.8395970276897113  1.0000
  H   H5        1.0  0.35715948903906214  0.634963371353135  0.21245335886458794  1.0000
  H   H6        1.0  0.6428405100896395  0.1349633713759312  0.28754664104247457  1.0000
  H   H7        1.0  0.6428405104385078  0.36503662860127256  0.7875466417198467  1.0000
  H   H8        1.0  0.35715948938793046  0.8650366285784764  0.7124533595419603  1.0000
  H   H9        1.0  0.5371230846078926  0.7196563147490328  0.154994427710917  1.0000
  H   H10       1.0  0.4628769145208089  0.21965631477182887  0.34500557219614547  1.0000
  H   H11       1.0  0.4628769148696773  0.2803436852053749  0.8450055728735177  1.0000
  H   H12       1.0  0.5371230848052385  0.7803436851825787  0.6549944270486214  1.0000
  H   H13       1.0  0.42364480519014797  0.8172440935611255  0.2104404905646947  1.0000
  H   H14       1.0  0.5763551939385536  0.31724409358392175  0.28955950934236774  1.0000
  H   H15       1.0  0.5763551941358995  0.182755906393282  0.7895595086800721  1.0000
  H   H16       1.0  0.42364480553901623  0.6827559063704858  0.7104404912420669  1.0000
  H   H17       1.0  0.6691425003129625  0.8686379594142049  0.8660634297920157  1.0000
  H   H18       1.0  0.3308574993619533  0.36863795943700106  0.6339365701301234  1.0000
  H   H19       1.0  0.33085749901308503  0.1313620405402027  0.13393656945275118  1.0000
  H   H20       1.0  0.6691425014617898  0.6313620405174065  0.3660634304597659  1.0000
  H   H21       1.0  0.8165432971247047  0.9065329918543804  0.15815207818707677  1.0000
  H   H22       1.0  0.18345670200399683  0.40653299187717656  0.3418479217199856  1.0000
  H   H23       1.0  0.18345670220134283  0.09346700810002721  0.84184792105769  1.0000
  H   H24       1.0  0.8165432974735731  0.5934670080772311  0.658152078864449  1.0000
  H   H25       1.0  0.735145384361123  0.07568362112882454  0.9417854715363069  1.0000
  H   H26       1.0  0.2648546153137929  0.5756836211060283  0.5582145283858322  1.0000
  H   H27       1.0  0.26485461646262  0.924316378825583  0.05821452905358248  1.0000
  H   H28       1.0  0.7351453840122546  0.42431637884837925  0.44178547085893455  1.0000
  H   H29       1.0  0.5920011522564995  0.031369941539164496  0.6558747013725237  1.0000
  H   H30       1.0  0.4079988474184163  0.5313699415163683  0.8441252985496153  1.0000
  H   H31       1.0  0.40799884706954803  0.9686300584152431  0.34412529787224305  1.0000
  H   H32       1.0  0.5920011520591536  0.4686300584380393  0.1558747020348194  1.0000
  H   H33       1.0  0.9543271799958044  0.054056549026829354  0.23965679986658606  1.0000
  H   H34       1.0  0.04567281913289716  0.5540565490040331  0.26034320004047645  1.0000
  H   H35       1.0  0.045672819481765464  0.9459434509275781  0.7603432007178487  1.0000
  H   H36       1.0  0.9543271801931503  0.4459434509503744  0.7396567992042904  1.0000
  H   H37       1.0  0.9390564389167866  0.9851884667420894  0.33698553642414686  1.0000
  H   H38       1.0  0.060943561558088055  0.48518846676488564  0.16301446348837023  1.0000
  H   H39       1.0  0.060943561906956364  0.014811533212318116  0.6630144641657424  1.0000
  H   H40       1.0  0.9390564377679596  0.5148115331895219  0.8369855357563967  1.0000
  H   H41       1.0  0.7564480846810839  0.03428609364902512  0.3335996840891617  1.0000
  H   H42       1.0  0.24355191444761778  0.5342860936262289  0.16640031581790082  1.0000
  H   H43       1.0  0.24355191479648608  0.9657139063053825  0.6664003164952731  1.0000
  H   H44       1.0  0.7564480848784297  0.46571390632817866  0.833599683426866  1.0000
  C   C1        1.0  0.9072554753343522  0.7561729062848367  0.4071605157229397  1.0000
  C   C2        1.0  0.09274452514052241  0.2561729063076329  0.0928394841895773  1.0000
  C   C3        1.0  0.09274452533786837  0.24382709366957087  0.5928394835272817  1.0000
  C   C4        1.0  0.9072554743370476  0.7438270936467747  0.9071605163948574  1.0000
  C   C5        1.0  0.07689532976787544  0.7367055965426753  0.3384715021118084  1.0000
  C   C6        1.0  0.923104669360826  0.23670559656547155  0.16152849779525408  1.0000
  C   C7        1.0  0.923104669558172  0.2632944034117322  0.6615284971329586  1.0000
  C   C8        1.0  0.07689533011674374  0.763294403388936  0.8384715027891806  1.0000
  C   C9        1.0  0.17775769998905197  0.7846408798215488  0.3010438200216802  1.0000
  C   C10       1.0  0.8222422991396496  0.2846408798443451  0.1989561798853823  1.0000
  C   C11       1.0  0.8222422994885179  0.21535912055816922  0.6989561805627545  1.0000
  C   C12       1.0  0.17775770033792032  0.715359120535373  0.8010438206990526  1.0000
  C   C13       1.0  0.07376598628277062  0.836033870810792  0.34121812774559895  1.0000
  C   C14       1.0  0.9262340141921039  0.33603387083358816  0.15878187216691814  1.0000
  C   C15       1.0  0.9262340145409723  0.1639661291436156  0.6587818728442905  1.0000
  C   C16       1.0  0.07376598513394352  0.6639661291208194  0.8412181270778487  1.0000
  C   C17       1.0  0.13909672126039094  0.6822178902045152  0.31139733136696135  1.0000
  C   C18       1.0  0.8609032778683107  0.18221789022731144  0.18860266854010113  1.0000
  C   C19       1.0  0.8609032780656566  0.3177821097498923  0.6886026678778054  1.0000
  C   C20       1.0  0.13909672160925926  0.8177821097270961  0.8113973320443336  1.0000
  C   C21       1.0  0.3063019084970707  0.6768597813230173  0.24365467304203073  1.0000
  C   C22       1.0  0.693698091977804  0.17685978134581345  0.25634532687048633  1.0000
  C   C23       1.0  0.6936980923266723  0.32314021863139036  0.7563453275478585  1.0000
  C   C24       1.0  0.3063019086944166  0.8231402186085941  0.7436546723797351  1.0000
  C   C25       1.0  0.40808642466570805  0.724906651208793  0.20848254747647468  1.0000
  C   C26       1.0  0.5919135759606889  0.22490665123158923  0.29151745377571026  1.0000
  C   C27       1.0  0.5919135761580349  0.27509334874561453  0.7915174531134146  1.0000
  C   C28       1.0  0.40808642351688096  0.7750933487228183  0.7084825468087245  1.0000
  C   C29       1.0  0.3448535239515725  0.7798436862522576  0.237429414232917  1.0000
  C   C30       1.0  0.655146475177129  0.2798436862750538  0.2625705856741455  1.0000
  C   C31       1.0  0.6551464755259974  0.22015631370215002  0.7625705863515178  1.0000
  C   C32       1.0  0.34485352414891846  0.7201563136793538  0.7374294135706213  1.0000
  C   C33       1.0  0.6853631659783644  0.9139403771925573  0.8925149714887516  1.0000
  C   C34       1.0  0.3146368336965515  0.41394037721535354  0.6074850284333874  1.0000
  C   C35       1.0  0.3146368334992055  0.08605962318716084  0.10748502909568307  1.0000
  C   C36       1.0  0.6853631669756692  0.5860596231643647  0.39251497081683395  1.0000
  C   C37       1.0  0.7660916273460818  0.9359109692370069  0.05248003700865985  1.0000
  C   C38       1.0  0.23390837178261978  0.43591096925980316  0.4475199628984027  1.0000
  C   C39       1.0  0.23390837213148807  0.06408903071740063  0.947519963575775  1.0000
  C   C40       1.0  0.7660916275434276  0.5640890306946044  0.5524800363463642  1.0000
  C   C41       1.0  0.7831086354847091  0.9947409544101675  0.07995284661948088  1.0000
  C   C42       1.0  0.21689136499016554  0.4947409544329637  0.4200471532930361  1.0000
  C   C43       1.0  0.21689136399286083  0.005259045544240114  0.9200471539649538  1.0000
  C   C44       1.0  0.783108635682055  0.5052590459467544  0.5799528459571852  1.0000
  C   C45       1.0  0.7202779799855894  0.029652275053133236  0.9346215074509694  1.0000
  C   C46       1.0  0.2797220198408488  0.5296522754556475  0.5653784938108376  1.0000
  C   C47       1.0  0.27972202083815356  0.9703477249012743  0.06537849313891986  1.0000
  C   C48       1.0  0.7202779796367211  0.47034772492407056  0.4346215067735972  1.0000
  C   C49       1.0  0.6415224751395795  0.00680451866757641  0.774562629226875  1.0000
  C   C50       1.0  0.3584775245353364  0.5068045186447803  0.725437370695264  1.0000
  C   C51       1.0  0.35847752418646806  0.9931954812868312  0.22543737001789185  1.0000
  C   C52       1.0  0.6415224749422336  0.49319548130962737  0.27456262988917063  1.0000
  C   C53       1.0  0.8634221403702513  0.018146005484666754  0.2567637147952315  1.0000
  C   C54       1.0  0.13657786010462322  0.5181460054618706  0.24323628511728546  1.0000
  C   C55       1.0  0.1365778591073185  0.9818539944697408  0.7432362857892032  1.0000
  C   C56       1.0  0.8634221405675974  0.481853994492537  0.7567637141329359  1.0000
  N   N1        1.0  0.9124804670149133  0.8157766993769835  0.3984420527121279  1.0000
  N   N2        1.0  0.08751953345996129  0.31577669939977976  0.10155794720038915  1.0000
  N   N3        1.0  0.08751953380882958  0.184223300577424  0.6015579478777614  1.0000
  N   N4        1.0  0.9124804672122593  0.6842233005546278  0.8984420520498323  1.0000
  N   N5        1.0  0.621745554513321  0.9495136881583769  0.7564811789353598  1.0000
  N   N6        1.0  0.37825444531311725  0.4495136881811731  0.7435188223264472  1.0000
  N   N7        1.0  0.37825444496424887  0.050486311796030664  0.24351882164907498  1.0000
  N   N8        1.0  0.6217455541644527  0.5504863117732345  0.25648117825798755  1.0000
  O   O1        1.0  0.11497546854309564  0.8862892508776556  0.3281205154291189  1.0000
  O   O2        1.0  0.8850245305856059  0.3862892509004518  0.17187948447794354  1.0000
  O   O3        1.0  0.8850245309344743  0.11371074907675197  0.6718794851553158  1.0000
  O   O4        1.0  0.1149754687404416  0.6137107490539557  0.8281205147668234  1.0000
  O   O5        1.0  0.7874192679464936  0.727724807510919  0.4634410371358316  1.0000
  O   O6        1.0  0.2125807311822079  0.22772480753371507  0.03655896277123086  1.0000
  O   O7        1.0  0.21258073153107623  0.27227519244348874  0.5365589634486031  1.0000
  O   O8        1.0  0.7874192681438396  0.7722751924206925  0.963441036473536  1.0000
  O   O9        1.0  0.5390680369350409  0.9284379627314527  0.6035650517370013  1.0000
  O   O10       1.0  0.4609319628913974  0.42843796275424895  0.8964349495248057  1.0000
  O   O11       1.0  0.46093196254252894  0.07156203722295486  0.3964349488474335  1.0000
  O   O12       1.0  0.5390680365861726  0.5715620372001586  0.10356505105962895  1.0000
  Br  Br1       1.0  0.7380613723214261  0.8653152159313615  0.487804927564013  1.0000
  Br  Br2       1.0  0.2619386281534485  0.36531521595415767  0.012195072348504076  1.0000
  Br  Br3       1.0  0.26193862835079446  0.13468478402304612  0.5121950716862084  1.0000
  Br  Br4       1.0  0.7380613726702945  0.6346847840002499  0.9878049282413852  1.0000
