data_image0
_chemical_formula_structural       H26C38N4O6Br2
_chemical_formula_sum              "H26 C38 N4 O6 Br2"
_cell_length_a       3.8692621572487034
_cell_length_b       11.872526671018553
_cell_length_c       17.981868771259386
_cell_angle_alpha    106.06341340299686
_cell_angle_beta     96.11065153967898
_cell_angle_gamma    95.91681518414411

_space_group_name_H-M_alt    "P 1"
_space_group_IT_number       1

loop_
  _space_group_symop_operation_xyz
  'x, y, z'

loop_
  _atom_site_type_symbol
  _atom_site_label
  _atom_site_symmetry_multiplicity
  _atom_site_fract_x
  _atom_site_fract_y
  _atom_site_fract_z
  _atom_site_occupancy
  H   H1        1.0  0.7252809755372646  0.954500644073553  0.016375681266606403  1.0000
  H   H2        1.0  0.2747190255666042  0.04549935582069192  0.9836243188502997  1.0000
  H   H3        1.0  0.01894486567463446  0.8669943113837693  0.11223514230663194  1.0000
  H   H4        1.0  0.9810551353474091  0.13300568910475274  0.8877648572283305  1.0000
  H   H5        1.0  0.013477667618161448  0.6512625301254851  0.08274747927853857  1.0000
  H   H6        1.0  0.9865223309015704  0.34873746977196146  0.9172525208369284  1.0000
  H   H7        1.0  0.7210543068363398  0.5147789735578838  0.95232332309953  1.0000
  H   H8        1.0  0.27894569426752924  0.4852210263363612  0.04767667701737622  1.0000
  H   H9        1.0  0.6770060057559439  0.5143704518879632  0.443752124607982  1.0000
  H   H10       1.0  0.322993994984923  0.48562954775263145  0.5562478749243635  1.0000
  H   H11       1.0  0.917889002437732  0.5853296964470974  0.3382941240156218  1.0000
  H   H12       1.0  0.08211099866613696  0.4146703034471475  0.6617058761012843  1.0000
  H   H13       1.0  0.28785466657620395  0.9215072845432928  0.51305067565589  1.0000
  H   H14       1.0  0.712145334527665  0.07849271535095227  0.48694932446101613  1.0000
  H   H15       1.0  0.03324007179425579  0.8355961270790386  0.6102843201086048  1.0000
  H   H16       1.0  0.966759926725476  0.16440387281840768  0.38971568000686213  1.0000
  H   H17       1.0  0.34268521063932406  0.6401539932155296  0.28011999895887424  1.0000
  H   H18       1.0  0.6573147904645448  0.35984600667871536  0.7198800011580319  1.0000
  H   H19       1.0  0.5627864962537991  0.7207397127140107  0.18026009582771657  1.0000
  H   H20       1.0  0.43721350226593264  0.2792602871834357  0.8197399042877502  1.0000
  H   H21       1.0  0.5897192731781713  0.9383138386365448  0.19366957869174656  1.0000
  H   H22       1.0  0.4102807253415605  0.06168616126090171  0.8063304214237204  1.0000
  H   H23       1.0  0.39129543930335386  0.07028867792079917  0.3081258328969319  1.0000
  H   H24       1.0  0.608704561800515  0.9297113219734457  0.6918741672199742  1.0000
  H   H25       1.0  0.17846660793034386  0.9892770151625722  0.4112120874426949  1.0000
  H   H26       1.0  0.821533390589388  0.010722984734874262  0.5887879126727721  1.0000
  C   C1        1.0  0.3665875822085115  0.6034440931077151  0.8332919306828722  1.0000
  C   C2        1.0  0.6334124188953575  0.3965559067865299  0.16670806943403396  1.0000
  C   C3        1.0  0.5648972032887429  0.660338863193076  0.9130555754262988  1.0000
  C   C4        1.0  0.435102797815126  0.33966113670116904  0.08694442469060744  1.0000
  C   C5        1.0  0.5654753141221702  0.7828613643615734  0.9304153010696594  1.0000
  C   C6        1.0  0.4345246869816988  0.2171386355326717  0.06958469904724676  1.0000
  C   C7        1.0  0.3661397866148762  0.8074091091000009  0.8622063841469503  1.0000
  C   C8        1.0  0.6338602115418536  0.19259089054379513  0.13779361538395593  1.0000
  C   C9        1.0  0.7265413127336865  0.859293196601412  0.0016259752390683142  1.0000
  C   C10       1.0  0.27345868837018233  0.14070680329283278  0.9983740248778379  1.0000
  C   C11       1.0  0.8891464301599359  0.8093177149524758  0.055869264775690444  1.0000
  C   C12       1.0  0.11085357058093084  0.1906822846881187  0.9441307347566549  1.0000
  C   C13       1.0  0.8872072211625541  0.686921993380308  0.038771938751260136  1.0000
  C   C14       1.0  0.11279278022249145  0.3130780073618642  0.961228061368263  1.0000
  C   C15       1.0  0.7248071263807744  0.610229872389985  0.9664247188427947  1.0000
  C   C16       1.0  0.2751928747230945  0.38977012750426004  0.03357528127411161  1.0000
  C   C17       1.0  0.8197740607746589  0.6027293503022432  0.4542612405791958  1.0000
  C   C18       1.0  0.18022593996620798  0.39727064933835143  0.5457387589531496  1.0000
  C   C19       1.0  0.9551211337511895  0.6448620180759242  0.3975963151109951  1.0000
  C   C20       1.0  0.04487886476854235  0.3551379818215223  0.602403685004472  1.0000
  C   C21       1.0  0.12203517560194684  0.7619810519309536  0.4150514877649735  1.0000
  C   C22       1.0  0.8779648255019221  0.23801894796329143  0.5849485123519327  1.0000
  C   C23       1.0  0.1529654923036318  0.8311481119546177  0.49342504168815293  1.0000
  C   C24       1.0  0.8470345062161  0.1688518879428287  0.5065749584273139  1.0000
  C   C25       1.0  0.01578759470730744  0.7866373823553217  0.5489406624870026  1.0000
  C   C26       1.0  0.9842124063965614  0.2133626175389233  0.4510593376299036  1.0000
  C   C27       1.0  0.2517096842855036  0.809526519768472  0.3544101398439929  1.0000
  C   C28       1.0  0.7482903142342283  0.19047348012897453  0.645589860271474  1.0000
  C   C29       1.0  0.3527656175873325  0.7345941896066976  0.28745096118857133  1.0000
  C   C30       1.0  0.6472343835165364  0.26540581028754734  0.7125490389283349  1.0000
  C   C31       1.0  0.4758000292743827  0.7804527102127246  0.2303250536282295  1.0000
  C   C32       1.0  0.5241999714664842  0.21954728942787005  0.7696749459041159  1.0000
  C   C33       1.0  0.4932733022972832  0.9012627021567636  0.2378220526044373  1.0000
  C   C34       1.0  0.5067266958594465  0.09873729748703237  0.7621779469264689  1.0000
  C   C35       1.0  0.38686173298223486  0.9764385234231069  0.30338511986433814  1.0000
  C   C36       1.0  0.6131382681216341  0.023561476471138106  0.696614880252568  1.0000
  C   C37       1.0  0.2705867768573624  0.9309916752366597  0.36132430820363537  1.0000
  C   C38       1.0  0.7294132245276831  0.06900832550551254  0.6386756919158877  1.0000
  N   N1        1.0  0.2579185296824069  0.6964925540083031  0.8070562044495434  1.0000
  N   N2        1.0  0.7420814688373248  0.3035074458891433  0.19294379566592354  1.0000
  N   N3        1.0  0.8434934648724054  0.6744852128295781  0.528769432451726  1.0000
  N   N4        1.0  0.15650653651264018  0.32551478791259425  0.47123056766779703  1.0000
  O   O1        1.0  0.30336897112571043  0.49788732408322817  0.7971674758433518  1.0000
  O   O2        1.0  0.6966310299781585  0.5021126758110168  0.20283252427355444  1.0000
  O   O3        1.0  0.2999150185730567  0.9025233554508908  0.8543454327579582  1.0000
  O   O4        1.0  0.7000849799466753  0.09747664444655586  0.14565456735750879  1.0000
  O   O5        1.0  0.6873859867431845  0.6347120489820529  0.5805235923051016  1.0000
  O   O6        1.0  0.3126140117765474  0.36528795091539373  0.41947640781036544  1.0000
  Br  Br1       1.0  0.0029516526709964103  0.6743108430454696  0.7053382484506545  1.0000
  Br  Br2       1.0  0.9970483461299119  0.325689157699904  0.2946617516674293  1.0000
