data_image0
_chemical_formula_structural       H44C56N8O16Br4
_chemical_formula_sum              "H44 C56 N8 O16 Br4"
_cell_length_a       7.44944099177218
_cell_length_b       23.44776585943559
_cell_length_c       7.906688319836339
_cell_angle_alpha    90.0
_cell_angle_beta     97.62260234243274
_cell_angle_gamma    90.0

_space_group_name_H-M_alt    "P 1"
_space_group_IT_number       1

loop_
  _space_group_symop_operation_xyz
  'x, y, z'

loop_
  _atom_site_type_symbol
  _atom_site_label
  _atom_site_symmetry_multiplicity
  _atom_site_fract_x
  _atom_site_fract_y
  _atom_site_fract_z
  _atom_site_occupancy
  H   H1        1.0  0.6263812125652403  0.31399308164949497  0.294991044025897  1.0000
  H   H2        1.0  0.3736187877346687  0.8139930816615304  0.20500895617705495  1.0000
  H   H3        1.0  0.37361878761039524  0.686006918374576  0.705008956148459  1.0000
  H   H4        1.0  0.6263812124409668  0.1860069183625405  0.7949910439973011  1.0000
  H   H5        1.0  0.5108846913086539  0.21623658264054524  0.34472532116590326  1.0000
  H   H6        1.0  0.48911530899125516  0.7162365826525806  0.15527467903704867  1.0000
  H   H7        1.0  0.4891153088669817  0.7837634173835256  0.6552746790084529  1.0000
  H   H8        1.0  0.5108846911843804  0.28376341737149013  0.8447253211373075  1.0000
  H   H9        1.0  0.6813628962185154  0.13109317571776494  0.2775339395946042  1.0000
  H   H10       1.0  0.3186371039049738  0.6310931757298004  0.22246605933232352  1.0000
  H   H11       1.0  0.3186371037807003  0.868906824306306  0.7224660593037276  1.0000
  H   H12       1.0  0.6813628960942419  0.3689068242942705  0.7775339395660084  1.0000
  H   H13       1.0  0.9714016998176175  0.1401584713742577  0.15145823851463722  1.0000
  H   H14       1.0  0.02859830048229149  0.6401584713862931  0.34854176168831474  1.0000
  H   H15       1.0  0.028598300358018008  0.8598415282233334  0.848541761659719  1.0000
  H   H16       1.0  0.971401699693344  0.35984152863777774  0.6514582384860416  1.0000
  H   H17       1.0  0.3466401825508213  0.37586073499849165  0.6183391962214005  1.0000
  H   H18       1.0  0.6533598175005408  0.8758607345840472  0.8816608039243597  1.0000
  H   H19       1.0  0.6533598176248143  0.6241392650255793  0.38166080395295565  1.0000
  H   H20       1.0  0.3466401826750947  0.1241392650135438  0.11833919624999634  1.0000
  H   H21       1.0  0.20269310655668796  0.4249932935930412  0.35461904131577054  1.0000
  H   H22       1.0  0.7973068937432211  0.9249932936050768  0.14538095888718136  1.0000
  H   H23       1.0  0.7973068936189476  0.5750067064310296  0.6453809588585856  1.0000
  H   H24       1.0  0.20269310643241445  0.07500670641899418  0.8546190412871747  1.0000
  H   H25       1.0  0.27838875244448713  0.5848059142266644  0.6320970018857016  1.0000
  H   H26       1.0  0.721611247606875  0.08480591421462894  0.8679029982600588  1.0000
  H   H27       1.0  0.7216112477311484  0.41519408579740646  0.3679029982886545  1.0000
  H   H28       1.0  0.2783887525687606  0.915194085809442  0.1320970019142974  1.0000
  H   H29       1.0  0.42177832632881346  0.5292307759464595  0.8853397967448189  1.0000
  H   H30       1.0  0.5782216737225486  0.02923077593442406  0.6146602034009415  1.0000
  H   H31       1.0  0.578221673846822  0.47076922407761135  0.11466020342953727  1.0000
  H   H32       1.0  0.42177832645308694  0.9707692240896467  0.3853397967734147  1.0000
  H   H33       1.0  0.07042358066849685  0.5490355450994715  0.08649230730788705  1.0000
  H   H34       1.0  0.9295764196314121  0.04903554508743615  0.4135076928950649  1.0000
  H   H35       1.0  0.9295764195071387  0.45096445492459925  0.913507692866469  1.0000
  H   H36       1.0  0.07042358054422339  0.9509644549366347  0.5864923072792914  1.0000
  H   H37       1.0  0.006680295748377522  0.48379422790231913  0.18526378218631856  1.0000
  H   H38       1.0  0.9933197045515315  0.9837942279143546  0.3147362180166333  1.0000
  H   H39       1.0  0.993319704427258  0.5162057721217518  0.8147362179880375  1.0000
  H   H40       1.0  0.006680295624104042  0.016205772109716327  0.6852637821577228  1.0000
  H   H41       1.0  0.23216145584765324  0.49267155383809635  0.1336897374446686  1.0000
  H   H42       1.0  0.7678385431094447  0.9926715538501317  0.3663102627552122  1.0000
  H   H43       1.0  0.7678385443279823  0.5073284461859745  0.8663102627296875  1.0000
  H   H44       1.0  0.23216145572337973  0.007328446173939074  0.6336897374160728  1.0000
  C   C1        1.0  0.9685105290531446  0.33198245524392034  0.1594832648690798  1.0000
  C   C2        1.0  0.031489469903953335  0.8319824552559557  0.3405167353308011  1.0000
  C   C3        1.0  0.03148947112249093  0.6680175447801505  0.8405167353052763  1.0000
  C   C4        1.0  0.9685105289288711  0.16801754476811506  0.659483264840484  1.0000
  C   C5        1.0  0.8655388529597361  0.2807394213786495  0.20027862642668187  1.0000
  C   C6        1.0  0.1344611459973618  0.7807394213906849  0.29972137377319896  1.0000
  C   C7        1.0  0.13446114587308833  0.7192605782189414  0.7997213737446033  1.0000
  C   C8        1.0  0.8655388541782737  0.21926057863338594  0.7002786264011572  1.0000
  C   C9        1.0  0.9618886165238943  0.23241599701521318  0.15910923854528783  1.0000
  C   C10       1.0  0.038111383599594845  0.7324159970272487  0.3408907603816399  1.0000
  C   C11       1.0  0.03811138347532135  0.7675840030088578  0.8408907603530441  1.0000
  C   C12       1.0  0.9618886163996209  0.2675840029968222  0.6591092385166921  1.0000
  C   C13       1.0  0.1272223181886045  0.2517550552742551  0.08765362829463473  1.0000
  C   C14       1.0  0.8727776821113046  0.7517550552862905  0.41234637190831724  1.0000
  C   C15       1.0  0.8727776819870311  0.7482449447498157  0.9123463718797215  1.0000
  C   C16       1.0  0.127222318064331  0.2482449447377803  0.587653628266039  1.0000
  C   C17       1.0  0.7022735649003686  0.2763840806347933  0.26549243463460287  1.0000
  C   C18       1.0  0.2977264353995404  0.7763840806468287  0.23450756556834906  1.0000
  C   C19       1.0  0.29772643527526693  0.7236159193892775  0.7345075655397533  1.0000
  C   C20       1.0  0.7022735647760951  0.22361591937724212  0.765492434606007  1.0000
  C   C21       1.0  0.6376088340338039  0.22141286556351544  0.29174356706195675  1.0000
  C   C22       1.0  0.36239116492329404  0.721412865575551  0.20825643313792414  1.0000
  C   C23       1.0  0.36239116479902056  0.7785871344605555  0.7082564331093284  1.0000
  C   C24       1.0  0.6376088352523415  0.27858713444852  0.791743567036432  1.0000
  C   C25       1.0  0.7343418403857481  0.17309778016086425  0.25214989237679375  1.0000
  C   C26       1.0  0.2656581599141607  0.6730977801728997  0.24785010782615818  1.0000
  C   C27       1.0  0.26565815978988727  0.8269022198632067  0.7478501077975626  1.0000
  C   C28       1.0  0.7343418402614749  0.3269022198511712  0.752149892348198  1.0000
  C   C29       1.0  0.8980412229539678  0.17793056895103376  0.1835628623902355  1.0000
  C   C30       1.0  0.10195877734594122  0.6779305689630692  0.31643713781271643  1.0000
  C   C31       1.0  0.10195877722166774  0.8220694310730371  0.8164371377841206  1.0000
  C   C32       1.0  0.8980412228296943  0.32206943106100167  0.6835628623616397  1.0000
  C   C33       1.0  0.3307476346510183  0.4220480091504209  0.6120419652795146  1.0000
  C   C34       1.0  0.6692523654003438  0.9220480091624564  0.8879580348662458  1.0000
  C   C35       1.0  0.6692523655246173  0.57795199087365  0.3879580348948416  1.0000
  C   C36       1.0  0.3307476347752918  0.0779519908616145  0.11204196530811034  1.0000
  C   C37       1.0  0.251351798473454  0.45014908470491133  0.4671861760394587  1.0000
  C   C38       1.0  0.7486482018264549  0.9501490847169467  0.032813824163493155  1.0000
  C   C39       1.0  0.7486482017021815  0.5498509153191595  0.5328138241348974  1.0000
  C   C40       1.0  0.25135179834918053  0.04985091530712411  0.967186176010863  1.0000
  C   C41       1.0  0.23602504035700206  0.5098818809293493  0.4699440911708027  1.0000
  C   C42       1.0  0.7639749586000958  0.009881880917313861  0.030055909029078214  1.0000
  C   C43       1.0  0.7639749598186336  0.4901181190947216  0.5300559090035535  1.0000
  C   C44       1.0  0.23602504023272858  0.9901181191067571  0.9699440911422069  1.0000
  C   C45       1.0  0.2956906366793171  0.5389691297567486  0.6221703930825982  1.0000
  C   C46       1.0  0.704309363372045  0.03896912974471311  0.8778296070631622  1.0000
  C   C47       1.0  0.7043093634963185  0.4610308702673223  0.3778296070917579  1.0000
  C   C48       1.0  0.2956906368035906  0.9610308702793576  0.122170393111194  1.0000
  C   C49       1.0  0.37283891003124187  0.5092506557589545  0.7630604195798121  1.0000
  C   C50       1.0  0.6271610900201201  0.009250655746919042  0.7369395805659482  1.0000
  C   C51       1.0  0.6271610901443937  0.49074934426511635  0.23693958059454406  1.0000
  C   C52       1.0  0.3728389088127043  0.9907493442771518  0.2630604196053368  1.0000
  C   C53       1.0  0.11544470891586936  0.5146919387692357  0.1756647941698233  1.0000
  C   C54       1.0  0.8845552913840395  0.014691939183680175  0.32433520603312865  1.0000
  C   C55       1.0  0.8845552912597661  0.48530806082835526  0.8243352060045329  1.0000
  C   C56       1.0  0.11544470879159589  0.9853080608403906  0.6756647941412275  1.0000
  N   N1        1.0  0.12201825257185776  0.31161660363730187  0.09504650584382675  1.0000
  N   N2        1.0  0.8779817477280513  0.8116166036493373  0.4049534943591252  1.0000
  N   N3        1.0  0.8779817476037778  0.6883833963867689  0.9049534943305294  1.0000
  N   N4        1.0  0.1220182524475843  0.18838339637473356  0.595046505815231  1.0000
  N   N5        1.0  0.39404572158338425  0.4515987503235366  0.7557623791332574  1.0000
  N   N6        1.0  0.6059542784679778  0.9515987503355721  0.744237621012503  1.0000
  N   N7        1.0  0.6059542785922513  0.5484012497005342  0.24423762104109875  1.0000
  N   N8        1.0  0.39404572170765767  0.048401249688498814  0.2557623791618531  1.0000
  O   O1        1.0  0.9317325333288404  0.3826213889111205  0.17705062483499215  1.0000
  O   O2        1.0  0.06826746697106856  0.882621388923156  0.3229493753679597  1.0000
  O   O3        1.0  0.06826746684679512  0.6173786106864705  0.8229493753393641  1.0000
  O   O4        1.0  0.931732533204567  0.1173786111009149  0.6770506248063964  1.0000
  O   O5        1.0  0.2439736491424162  0.22318117731861237  0.031387124067802155  1.0000
  O   O6        1.0  0.7560263511574927  0.7231811773306478  0.4686128761351498  1.0000
  O   O7        1.0  0.7560263510332192  0.7768188227054585  0.968612876106554  1.0000
  O   O8        1.0  0.24397364901814275  0.27681882269342306  0.5313871240392064  1.0000
  O   O9        1.0  0.4813555811787585  0.42484430029359677  0.8919041158911309  1.0000
  O   O10       1.0  0.5186444188726035  0.9248443003056321  0.6080958842546293  1.0000
  O   O11       1.0  0.5186444188204571  0.5751556997304741  0.10809588300720094  1.0000
  O   O12       1.0  0.481355581303032  0.07515569971843869  0.3919041159197268  1.0000
  O   O13       1.0  0.1671570463565264  0.5424142366587987  0.33682400509857047  1.0000
  O   O14       1.0  0.8328429539433826  0.042414236646763366  0.16317599510438147  1.0000
  O   O15       1.0  0.8328429538191091  0.45758576336527207  0.6631759950757856  1.0000
  O   O16       1.0  0.16715704623225291  0.9575857633773075  0.8368240050699747  1.0000
  Br  Br1       1.0  0.2899568555762481  0.3621752656909384  0.006007296029892873  1.0000
  Br  Br2       1.0  0.7100431447236608  0.8621752657029739  0.49399270417305907  1.0000
  Br  Br3       1.0  0.7100431445993874  0.6378247343331325  0.9939927041444633  1.0000
  Br  Br4       1.0  0.2899568554519747  0.13782473432109704  0.5060072960012971  1.0000
