data_image0
_chemical_formula_structural       H52C60N8O12Br4
_chemical_formula_sum              "H52 C60 N8 O12 Br4"
_cell_length_a       9.966874403820151
_cell_length_b       10.739205261021006
_cell_length_c       13.74948074290312
_cell_angle_alpha    76.31252676616683
_cell_angle_beta     78.73332511416368
_cell_angle_gamma    86.44420115420803

_space_group_name_H-M_alt    "P 1"
_space_group_IT_number       1

loop_
  _space_group_symop_operation_xyz
  'x, y, z'

loop_
  _atom_site_type_symbol
  _atom_site_label
  _atom_site_symmetry_multiplicity
  _atom_site_fract_x
  _atom_site_fract_y
  _atom_site_fract_z
  _atom_site_occupancy
  H   H1        1.0  0.8307030977573778  0.13953973378617485  0.86411280537283  1.0000
  H   H2        1.0  0.16929690264116296  0.860460266466609  0.135887194150092  1.0000
  H   H3        1.0  0.6786612611798273  0.9497472288826284  0.9111421625003953  1.0000
  H   H4        1.0  0.3213387390901255  0.05025277022165573  0.08885783778899885  1.0000
  H   H5        1.0  0.6266286984108034  0.8225010282816771  0.08973616224056685  1.0000
  H   H6        1.0  0.37337130104508093  0.17749897103674134  0.9102638372880623  1.0000
  H   H7        1.0  0.7255561982254424  0.8811863792236115  0.22537877643377718  1.0000
  H   H8        1.0  0.27444380198354806  0.11881362081494223  0.7746212238510334  1.0000
  H   H9        1.0  0.17397594937422386  0.9960818277653346  0.25776473197022537  1.0000
  H   H10       1.0  0.8260240508347664  0.003918172273219057  0.7422352683145853  1.0000
  H   H11       1.0  0.06808542187907475  0.12503492774092498  0.38058603581979  1.0000
  H   H12       1.0  0.9319145785194659  0.874965072511859  0.619413963703132  1.0000
  H   H13       1.0  0.1490343986784114  0.10223989745930011  0.5444117057337399  1.0000
  H   H14       1.0  0.8509656015305789  0.8977601025792536  0.4555882945510705  1.0000
  H   H15       1.0  0.3372535127056051  0.9489825089680214  0.5879062947888412  1.0000
  H   H16       1.0  0.6627464875033853  0.05101749107053235  0.41209370549596935  1.0000
  H   H17       1.0  0.8393716977265266  0.5578937873664132  0.08718656106902767  1.0000
  H   H18       1.0  0.16062830273297657  0.4421062119521014  0.9128134384584778  1.0000
  H   H19       1.0  0.7267470571644786  0.47801482174137183  0.9634984486482879  1.0000
  H   H20       1.0  0.27325294304451164  0.5219851782971817  0.036501551636522606  1.0000
  H   H21       1.0  0.6280488738577211  0.2968077132663779  0.3325152893777366  1.0000
  H   H22       1.0  0.37195112635126926  0.7031922867721756  0.6674847109070738  1.0000
  H   H23       1.0  0.5187926613120543  0.0889076336589863  0.20230048966095357  1.0000
  H   H24       1.0  0.48120733889693607  0.9110923663795675  0.7976995106238569  1.0000
  H   H25       1.0  0.38282831448861665  0.20220061862176866  0.213344095835475  1.0000
  H   H26       1.0  0.617171685909924  0.7977993816310153  0.786655903687447  1.0000
  H   H27       1.0  0.4716362974301947  0.14717008872284237  0.31598966085681707  1.0000
  H   H28       1.0  0.5283637029683459  0.8528299115299417  0.684010338666105  1.0000
  H   H29       1.0  0.4243643393117708  0.30551868777718294  0.03248571058898992  1.0000
  H   H30       1.0  0.5756356610867699  0.6944813124756011  0.967514288933932  1.0000
  H   H31       1.0  0.5525629504281936  0.18745143847248483  0.0162468314693844  1.0000
  H   H32       1.0  0.4474370497807968  0.8125485615660687  0.9837531688154262  1.0000
  H   H33       1.0  0.5687923438678275  0.3409661326996474  0.9317748416646702  1.0000
  H   H34       1.0  0.4312076565307131  0.6590338675531365  0.06822515785825176  1.0000
  H   H35       1.0  0.07409698337960013  0.5846428059847909  0.19426877898506495  1.0000
  H   H36       1.0  0.9259030168293902  0.4153571940537629  0.8057312212997456  1.0000
  H   H37       1.0  0.2897899085966836  0.49057264768051245  0.4963641076213255  1.0000
  H   H38       1.0  0.7102100916123067  0.5094273523580412  0.5036358926634851  1.0000
  H   H39       1.0  0.361833292560969  0.37990428622615896  0.3536299858058825  1.0000
  H   H40       1.0  0.6381667076480213  0.6200957138123948  0.6463700144789281  1.0000
  H   H41       1.0  0.9237006732815788  0.7372025359042038  0.25531214292266863  1.0000
  H   H42       1.0  0.07629932611334307  0.2627974643484841  0.7446878566013767  1.0000
  H   H43       1.0  0.9917670728068707  0.8262225192206015  0.32818283811186943  1.0000
  H   H44       1.0  0.00823292740211959  0.1737774808179521  0.6718171621729411  1.0000
  H   H45       1.0  0.8703860306881155  0.705903613790574  0.3897667861351249  1.0000
  H   H46       1.0  0.1296139687068064  0.29409638646211367  0.6102332133889204  1.0000
  H   H47       1.0  0.09442431467103089  0.7775274668072752  0.4857259927655013  1.0000
  H   H48       1.0  0.9055756855379593  0.22247253323127836  0.5142740075193092  1.0000
  H   H49       1.0  0.13905304368015953  0.6390904079042281  0.5752753502131686  1.0000
  H   H50       1.0  0.8609469565897931  0.3609095912000562  0.4247246500762255  1.0000
  H   H51       1.0  0.9740074199867942  0.656359781390243  0.5424235691111332  1.0000
  H   H52       1.0  0.025992580222196082  0.34364021864831074  0.45757643117367724  1.0000
  C   C1        1.0  0.9068471895107063  0.09958276259917073  0.1823818089133084  1.0000
  C   C2        1.0  0.09315280975562774  0.9004172365050173  0.8176181913772093  1.0000
  C   C3        1.0  0.8336229736811961  0.04195493262170366  0.11947432489406469  1.0000
  C   C4        1.0  0.1663770267173445  0.9580450676310804  0.8805256746288571  1.0000
  C   C5        1.0  0.8646507530736182  0.1128612220195305  0.01857445803092789  1.0000
  C   C6        1.0  0.13534924613175361  0.8871387780189268  0.9814255422550061  1.0000
  C   C7        1.0  0.959191917955062  0.21694461699506565  0.014730068548228356  1.0000
  C   C8        1.0  0.04080808125030942  0.7830553830433917  0.9852699317377057  1.0000
  C   C9        1.0  0.8103371979721621  0.08205792608492016  0.9419587377208227  1.0000
  C   C10       1.0  0.1896628014227596  0.9179420741677676  0.058041261803222756  1.0000
  C   C11       1.0  0.7240506757253913  0.9759112274682801  0.9693324998669133  1.0000
  C   C12       1.0  0.27594932354094265  0.024088771635907832  0.0306675004236043  1.0000
  C   C13       1.0  0.6942036050086762  0.9041944453178484  0.06992576334180037  1.0000
  C   C14       1.0  0.30579639538986453  0.09580555493493545  0.9300742361811216  1.0000
  C   C15       1.0  0.7486026897470329  0.9370854833581574  0.147069925752486  1.0000
  C   C16       1.0  0.25139731065150767  0.06291451689462657  0.852930073770436  1.0000
  C   C17       1.0  0.4720991234496277  0.7883490684987023  0.45078888570561154  1.0000
  C   C18       1.0  0.5279008767593626  0.2116509315398513  0.549211114579199  1.0000
  C   C19       1.0  0.3608335602882943  0.8876477928454932  0.44631601256109793  1.0000
  C   C20       1.0  0.6391664399206961  0.11235220719306038  0.5536839877237126  1.0000
  C   C21       1.0  0.31518879945940226  0.9003436243153801  0.3542069739117862  1.0000
  C   C22       1.0  0.6848112009391384  0.09965637593740398  0.6457930256111357  1.0000
  C   C23       1.0  0.3977236611386512  0.8105163552145905  0.29751638348424125  1.0000
  C   C24       1.0  0.6022763392598894  0.18948364503819315  0.7024836160386807  1.0000
  C   C25       1.0  0.2103065143778574  0.9853245842987067  0.3289896106229078  1.0000
  C   C26       1.0  0.7896934858311329  0.01467541573984693  0.6710103896619027  1.0000
  C   C27       1.0  0.1514148362913948  0.05865928620787337  0.39887740316291126  1.0000
  C   C28       1.0  0.8485851639175955  0.9413407138306804  0.6011225971218993  1.0000
  C   C29       1.0  0.1971861883283239  0.045946110299387555  0.49055335008044876  1.0000
  C   C30       1.0  0.8028138118806665  0.9540538897391663  0.5094466502043618  1.0000
  C   C31       1.0  0.303246903820857  0.9595595919501695  0.515781106329423  1.0000
  C   C32       1.0  0.6967530964490957  0.040440407154114906  0.48421889395997114  1.0000
  C   C33       1.0  0.766477613989356  0.47997703369049166  0.11034509596649802  1.0000
  C   C34       1.0  0.23352238521601543  0.5200229663479657  0.889654904319436  1.0000
  C   C35       1.0  0.7031793384019311  0.4341303328038766  0.044908650389408424  1.0000
  C   C36       1.0  0.2968206619966094  0.5658696674489074  0.9550913491335133  1.0000
  C   C37       1.0  0.6082640045524621  0.3356008231877721  0.08145012942207529  1.0000
  C   C38       1.0  0.39173599565652834  0.6643991768507816  0.9185498708627352  1.0000
  C   C39       1.0  0.5818597597828866  0.28078267443942845  0.18727999087478317  1.0000
  C   C40       1.0  0.4181402406156539  0.7192173258133556  0.8127200086481388  1.0000
  C   C41       1.0  0.6470406810303786  0.32980410036388275  0.2500036653354071  1.0000
  C   C42       1.0  0.352959319368162  0.6701958998889013  0.749996334187515  1.0000
  C   C43       1.0  0.48378804662638086  0.1736409472649578  0.23276236022008123  1.0000
  C   C44       1.0  0.5162119527685409  0.8263590529877299  0.7672376393039643  1.0000
  C   C45       1.0  0.5354212326047656  0.2906343654791118  0.011244271055607291  1.0000
  C   C46       1.0  0.4645787667901562  0.709365634773576  0.9887557284684382  1.0000
  C   C47       1.0  0.11747014164760312  0.5688202392116941  0.26302262526272047  1.0000
  C   C48       1.0  0.8825298587509375  0.43117976104108985  0.7369773742602015  1.0000
  C   C49       1.0  0.07134834860257669  0.6338020585170684  0.3396399350223178  1.0000
  C   C50       1.0  0.928651650602795  0.3661979415213891  0.6603600652636161  1.0000
  C   C51       1.0  0.13237793947006257  0.6072840733942729  0.4270170155866407  1.0000
  C   C52       1.0  0.8676220607389279  0.3927159266442807  0.5729829846981698  1.0000
  C   C53       1.0  0.23866945794191302  0.5157966982699203  0.43097238853904146  1.0000
  C   C54       1.0  0.7613305424566276  0.48420330198286365  0.5690276109838804  1.0000
  C   C55       1.0  0.2815305355325877  0.45291656707884836  0.352979690790926  1.0000
  C   C56       1.0  0.7184694636727836  0.547083432959609  0.647020309495008  1.0000
  C   C57       1.0  0.9584037782068794  0.730968031093167  0.3270930557091075  1.0000
  C   C58       1.0  0.041596222191661196  0.26903196915961697  0.6729069438138146  1.0000
  C   C59       1.0  0.08355604296872025  0.6731541290907184  0.5123422626511326  1.0000
  C   C60       1.0  0.9164439574298204  0.32684587116206565  0.4876577368717894  1.0000
  N   N1        1.0  0.9785548947795576  0.2034738094336946  0.11486821584095555  1.0000
  N   N2        1.0  0.021445105429432808  0.796526190604859  0.8851317844438549  1.0000
  N   N3        1.0  0.4890784341414123  0.7481634573377257  0.3597340673595402  1.0000
  N   N4        1.0  0.5109215662571284  0.2518365429150584  0.6402659321633817  1.0000
  N   N5        1.0  0.7355700380507406  0.42823613395365384  0.21175337657146429  1.0000
  N   N6        1.0  0.2644299621582497  0.5717638660848999  0.7882466237133462  1.0000
  N   N7        1.0  0.2210184072159796  0.48066813618144416  0.2699674663404231  1.0000
  N   N8        1.0  0.7789815919893919  0.5193318638570132  0.7300325339455109  1.0000
  O   O1        1.0  0.9071940361616819  0.06534030772245468  0.27398355293374654  1.0000
  O   O2        1.0  0.0928059640473083  0.9346596923160991  0.726016447351064  1.0000
  O   O3        1.0  0.011478172291960407  0.2982637284802452  0.9402537556266107  1.0000
  O   O4        1.0  0.9885218281065803  0.7017362717725387  0.05974624389631118  1.0000
  O   O5        1.0  0.39069828931248957  0.7930519193984731  0.21369227532624424  1.0000
  O   O6        1.0  0.6093017108965009  0.20694808064008072  0.7863077249585663  1.0000
  O   O7        1.0  0.5370974863489204  0.7478242386984978  0.5195714428683834  1.0000
  O   O8        1.0  0.46290251404962013  0.25217576155428617  0.4804285566545386  1.0000
  O   O9        1.0  0.7882226982769021  0.47773144227887077  0.27650338434199717  1.0000
  O   O10       1.0  0.2117773019320883  0.5222685577596828  0.7234966159428133  1.0000
  O   O11       1.0  0.2665044275751054  0.42193118037041744  0.19412071437133016  1.0000
  O   O12       1.0  0.7334955726338849  0.5780688196681363  0.8058792859134803  1.0000
  Br  Br1       1.0  0.1044398356402429  0.30635571087562635  0.15347408193093737  1.0000
  Br  Br2       1.0  0.8955601645687473  0.6936442891629274  0.8465259183538733  1.0000
  Br  Br3       1.0  0.6259793457558211  0.6207688549638987  0.3229261495089369  1.0000
  Br  Br4       1.0  0.3740206536391006  0.37923114528878904  0.6770738500151086  1.0000
