data_image0
_chemical_formula_structural       H60C56N12O24I8
_chemical_formula_sum              "H60 C56 N12 O24 I8"
_cell_length_a       8.249741689444296
_cell_length_b       14.291025493422314
_cell_length_c       16.264096778453485
_cell_angle_alpha    74.68229345561939
_cell_angle_beta     84.32498601012945
_cell_angle_gamma    81.33833854662409

_space_group_name_H-M_alt    "P 1"
_space_group_IT_number       1

loop_
  _space_group_symop_operation_xyz
  'x, y, z'

loop_
  _atom_site_type_symbol
  _atom_site_label
  _atom_site_symmetry_multiplicity
  _atom_site_fract_x
  _atom_site_fract_y
  _atom_site_fract_z
  _atom_site_occupancy
  H   H1        1.0  0.31382149193233483  0.6518898424496231  0.9414317622695573  1.0000
  H   H2        1.0  0.6861785083354135  0.34811015756080654  0.05856823785285982  1.0000
  H   H3        1.0  0.5980379232867477  0.6547042550374484  0.8739856095361818  1.0000
  H   H4        1.0  0.4019620771659466  0.3452957442652493  0.12601439058595787  1.0000
  H   H5        1.0  0.8384017386081908  0.6074195599776714  0.9680149852087233  1.0000
  H   H6        1.0  0.16159826173562442  0.39258044021847427  0.0319850142749677  1.0000
  H   H7        1.0  0.7766302256004683  0.5725107943483961  0.12915507219032263  1.0000
  H   H8        1.0  0.22336977466727986  0.4274892056620335  0.8708449279320944  1.0000
  H   H9        1.0  0.08887835373681734  0.5884648486652814  0.03380898313221547  1.0000
  H   H10       1.0  0.9111216465309311  0.4115351513451483  0.9661910169902016  1.0000
  H   H11       1.0  0.10492462581744999  0.7143336943215993  0.026192760558729784  1.0000
  H   H12       1.0  0.8950753744502983  0.2856663056888302  0.9738072395636873  1.0000
  H   H13       1.0  0.005284315677249261  0.642792263292905  0.12045529392450977  1.0000
  H   H14       1.0  0.9947156845904992  0.3572077367175246  0.8795447061979073  1.0000
  H   H15       1.0  0.5283242314460725  0.03344613816971154  0.3400674083597193  1.0000
  H   H16       1.0  0.47167576889774265  0.9665538620264342  0.6599325911239717  1.0000
  H   H17       1.0  0.3656741050567049  0.07583133009353471  0.4062387350112431  1.0000
  H   H18       1.0  0.6343258952110433  0.924168669916895  0.5937612651111739  1.0000
  H   H19       1.0  0.5667374698870411  0.08222713149436407  0.5017468975757908  1.0000
  H   H20       1.0  0.43326252916858704  0.9177728685159153  0.4982531025466275  1.0000
  H   H21       1.0  0.7307588455999362  0.06308955535420231  0.42537666872042124  1.0000
  H   H22       1.0  0.26924115466781207  0.9369104446562273  0.5746233314019958  1.0000
  H   H23       1.0  0.01101457969963851  0.9922156825995617  0.34842109614434125  1.0000
  H   H24       1.0  0.9889854205681098  0.007784317410867971  0.6515789039780758  1.0000
  H   H25       1.0  0.16676809378838886  0.9611612398077546  0.4203278859471255  1.0000
  H   H26       1.0  0.8332319064793595  0.03883876020267493  0.5796721141752915  1.0000
  H   H27       1.0  0.8703226857271199  0.8578073987944134  0.43203192243016786  1.0000
  H   H28       1.0  0.12967731454062836  0.1421926012160162  0.5679680776922491  1.0000
  H   H29       1.0  0.012405379564843489  0.8388034194065171  0.5108871803644915  1.0000
  H   H30       1.0  0.9875946207789719  0.16119658078962854  0.4891128191191995  1.0000
  H   H31       1.0  0.1603475313465457  0.42922681887833236  0.2203851341692571  1.0000
  H   H32       1.0  0.8396524689212027  0.5707731811320972  0.7796148659531599  1.0000
  H   H33       1.0  0.9597515964301848  0.47391518313748493  0.253293788706173  1.0000
  H   H34       1.0  0.04024840383756341  0.5260848168729446  0.7467062114162442  1.0000
  H   H35       1.0  0.18123832522750674  0.31526947122056337  0.3579541835543629  1.0000
  H   H36       1.0  0.8187616751163086  0.6847305289755823  0.6420458159293281  1.0000
  H   H37       1.0  0.9703638447662422  0.34425171211578154  0.38510154986170025  1.0000
  H   H38       1.0  0.02963615428938587  0.6557482878944979  0.614898450260718  1.0000
  H   H39       1.0  0.4291871889199672  0.06655647711799605  0.18648127776071988  1.0000
  H   H40       1.0  0.5708128102117278  0.9334435230779995  0.8135187217229725  1.0000
  H   H41       1.0  0.20786476381995916  0.1383679729867359  0.08426329367427286  1.0000
  H   H42       1.0  0.7921352364477889  0.8616320270236937  0.9157367064481442  1.0000
  H   H43       1.0  0.2888774216727391  0.17897429282588642  0.9251461014661545  1.0000
  H   H44       1.0  0.711122578595009  0.8210257071845432  0.07485389865626257  1.0000
  H   H45       1.0  0.5821393230546076  0.1478092230425049  0.8763406160413704  1.0000
  H   H46       1.0  0.4178606772131407  0.8521907769679247  0.12365938408104672  1.0000
  H   H47       1.0  0.861830719790014  0.1721124047560811  0.8694286010225017  1.0000
  H   H48       1.0  0.1381692804777343  0.8278875952543485  0.13057139909991533  1.0000
  H   H49       1.0  0.8363166804608969  0.05048010034637082  0.8666463999337977  1.0000
  H   H50       1.0  0.1636833187796771  0.9495198989561767  0.13335360018834327  1.0000
  H   H51       1.0  0.02077199980159741  0.07172297195040737  0.9049185157345745  1.0000
  H   H52       1.0  0.9792279994389768  0.9282770273521401  0.0950814843875665  1.0000
  H   H53       1.0  0.897124960000626  0.5237539554888362  0.4109458757608148  1.0000
  H   H54       1.0  0.10287503905500191  0.47624604452144337  0.5890541243616035  1.0000
  H   H55       1.0  0.7040302400382027  0.507420612471871  0.38154600131044886  1.0000
  H   H56       1.0  0.29596975901742517  0.4925793875384086  0.6184539988119694  1.0000
  H   H57       1.0  0.5649884162078136  0.5931806273169666  0.4840526432674299  1.0000
  H   H58       1.0  0.43501158284781455  0.406819372693313  0.5159473568549883  1.0000
  H   H59       1.0  0.7596384832805243  0.5924673324847185  0.521784377945611  1.0000
  H   H60       1.0  0.24036151698722416  0.40753266752571105  0.478215622176806  1.0000
  C   C1        1.0  0.3940144497736761  0.6149042965874951  0.06925142961721784  1.0000
  C   C2        1.0  0.6059855504940721  0.38509570342293453  0.9307485705051992  1.0000
  C   C3        1.0  0.41931810909041545  0.6364009059955658  0.9803926833049229  1.0000
  C   C4        1.0  0.5806818911773329  0.3635990940148638  0.019607316817494037  1.0000
  C   C5        1.0  0.5786711143919976  0.6355094362615044  0.9433925344481799  1.0000
  C   C6        1.0  0.4213288858757508  0.36449056374892524  0.05660746567423716  1.0000
  C   C7        1.0  0.712307724047157  0.611226896164787  0.9951244339467553  1.0000
  C   C8        1.0  0.28769227622059135  0.38877310384564273  0.0048755661756617824  1.0000
  C   C9        1.0  0.6836720997055087  0.5912572458670129  0.08261439621357242  1.0000
  C   C10       1.0  0.3163279005622394  0.4087427541434169  0.9173856039088447  1.0000
  C   C11       1.0  0.10264751634851724  0.6412347241648347  0.0700025467146452  1.0000
  C   C12       1.0  0.897352483919231  0.35876527584559487  0.9299974534077718  1.0000
  C   C13       1.0  0.4570523465279845  0.18977480610273717  0.3104158394772417  1.0000
  C   C14       1.0  0.5429476537397637  0.8102251939076927  0.6895841606451752  1.0000
  C   C15       1.0  0.4859124702842602  0.09067811523152111  0.3737684062377032  1.0000
  C   C16       1.0  0.5140875299834882  0.9093218847789086  0.6262315938847138  1.0000
  C   C17       1.0  0.6081132178030431  0.10286224612753991  0.4341247337492253  1.0000
  C   C18       1.0  0.39188678246470515  0.8971377538828897  0.5658752663731916  1.0000
  C   C19       1.0  0.6233569591127515  0.21137052790585917  0.40995703326339045  1.0000
  C   C20       1.0  0.3766430399428766  0.7886294721044202  0.590042966859028  1.0000
  C   C21       1.0  0.20329523474830621  0.8832421192138915  0.32377413743485944  1.0000
  C   C22       1.0  0.7967047655194421  0.11675788079653814  0.6762258626875576  1.0000
  C   C23       1.0  0.09110260726926903  0.9300602209852923  0.38503318178723767  1.0000
  C   C24       1.0  0.9088973929984792  0.0699397790251373  0.6149668183351794  1.0000
  C   C25       1.0  0.002050270536270997  0.8480344176489623  0.4425119842126987  1.0000
  C   C26       1.0  0.9979497298075444  0.1519655825471836  0.5574880152709922  1.0000
  C   C27       1.0  0.08047562088748  0.7559260788161339  0.4179436438786676  1.0000
  C   C28       1.0  0.9195243793802682  0.24407392119429572  0.5820563562437494  1.0000
  C   C29       1.0  0.9723229537457049  0.35874942773298885  0.18986892404694095  1.0000
  C   C30       1.0  0.027677046522043502  0.6412505722774408  0.8101310760754761  1.0000
  C   C31       1.0  0.04121618990248782  0.4068683701338951  0.24896883693558586  1.0000
  C   C32       1.0  0.9587838103652605  0.5931316298765344  0.7510311631868313  1.0000
  C   C33       1.0  0.05844905734192186  0.3286070970832265  0.3335271898802775  1.0000
  C   C34       1.0  0.9415509429258265  0.6713929029272032  0.6664728102421396  1.0000
  C   C35       1.0  0.018643823315292872  0.23676712842653883  0.3146978401168089  1.0000
  C   C36       1.0  0.9813561758164023  0.7632328717694566  0.6853021593668834  1.0000
  C   C37       1.0  0.45409924176251937  0.08715602636221699  0.11766535325776122  1.0000
  C   C38       1.0  0.5459007585812959  0.9128439738339286  0.8823346462259298  1.0000
  C   C39       1.0  0.3348464316549419  0.12606383888132602  0.05973175550684163  1.0000
  C   C40       1.0  0.6651535674006862  0.8739361611289534  0.9402682446155767  1.0000
  C   C41       1.0  0.3805374879124004  0.1486579511326227  0.9723244857675271  1.0000
  C   C42       1.0  0.619462512355348  0.851342048877807  0.027675514354889928  1.0000
  C   C43       1.0  0.54468802808596  0.13212305626497595  0.9442418712254559  1.0000
  C   C44       1.0  0.4553119722578553  0.8678769439311698  0.05575812825823509  1.0000
  C   C45       1.0  0.6630200305283652  0.09377094660141133  0.004282637916533032  1.0000
  C   C46       1.0  0.33697996973938316  0.9062290534090184  0.9957173622058839  1.0000
  C   C47       1.0  0.8887892527110418  0.09398364179238869  0.9011896678478778  1.0000
  C   C48       1.0  0.11121074755670653  0.9060163582180409  0.09881033227453917  1.0000
  C   C49       1.0  0.7903324063161095  0.6436310715590186  0.3153877465013769  1.0000
  C   C50       1.0  0.20966759395163875  0.3563689284514111  0.6846122536210402  1.0000
  C   C51       1.0  0.7734893203631021  0.5608832324661971  0.395034768318084  1.0000
  C   C52       1.0  0.22651067869252595  0.4391167675440824  0.6049652318043343  1.0000
  C   C53       1.0  0.6908164627428899  0.610033131921745  0.4642053771024216  1.0000
  C   C54       1.0  0.30918353760092543  0.38996686827440075  0.5357946223812694  1.0000
  C   C55       1.0  0.6810550391643545  0.718794770675145  0.4232550375197622  1.0000
  C   C56       1.0  0.31894496110339365  0.28120522933528463  0.576744962602655  1.0000
  N   N1        1.0  0.5276102356619343  0.5946697473473816  0.11827579683189525  1.0000
  N   N2        1.0  0.4723897646058139  0.40533025266304795  0.8817242032905217  1.0000
  N   N3        1.0  0.5344728401335668  0.25464761243570827  0.33773804528461704  1.0000
  N   N4        1.0  0.4655271601341814  0.7453523875747214  0.6622619548378  1.0000
  N   N5        1.0  0.19283548811421247  0.7833198388604995  0.3482730905585926  1.0000
  N   N6        1.0  0.8071645121535358  0.21668016114993002  0.6517269095638244  1.0000
  N   N7        1.0  0.963199920861154  0.26192390832627  0.23224384373690526  1.0000
  N   N8        1.0  0.03680007837942024  0.7380760909762776  0.7677561563852356  1.0000
  N   N9        1.0  0.6142956611925176  0.07195657145730897  0.0899148523074391  1.0000
  N   N10       1.0  0.38570433907523066  0.9280434285531208  0.910085147814978  1.0000
  N   N11       1.0  0.735226998050123  0.7312487396546199  0.33730321573555305  1.0000
  N   N12       1.0  0.264773001005505  0.26875126035565966  0.6626967843868652  1.0000
  O   O1        1.0  0.5054605070237207  0.575626011630206  0.2036359242376566  1.0000
  O   O2        1.0  0.4945394933200946  0.4243739885659397  0.7963640752460345  1.0000
  O   O3        1.0  0.2518001677238729  0.6117136421931104  0.11527927289368176  1.0000
  O   O4        1.0  0.7481998327288214  0.38828635710958725  0.8847207272284578  1.0000
  O   O5        1.0  0.3765913829672388  0.21148440399107302  0.2466764868172495  1.0000
  O   O6        1.0  0.6234086173005094  0.7885155960193566  0.7533235133051676  1.0000
  O   O7        1.0  0.7008997677838898  0.2556467952007426  0.4440710522895106  1.0000
  O   O8        1.0  0.29910023255992535  0.7443532049954031  0.5559289471941804  1.0000
  O   O9        1.0  0.2890446256920543  0.9239416347307728  0.26229644657496426  1.0000
  O   O10       1.0  0.7109553745756939  0.0760583652796567  0.7377035535474529  1.0000
  O   O11       1.0  0.051837309549678516  0.671676882567705  0.44943867404432875  1.0000
  O   O12       1.0  0.9481626907941367  0.3283231176284406  0.5505613254393624  1.0000
  O   O13       1.0  0.9321758554795223  0.39711738882692543  0.11620706039003771  1.0000
  O   O14       1.0  0.06782414357610587  0.6028826111833541  0.8837929397323806  1.0000
  O   O15       1.0  0.027048163250511514  0.15384276001055897  0.3615393450905382  1.0000
  O   O16       1.0  0.9729518358811836  0.8461572401854366  0.6384606543931541  1.0000
  O   O17       1.0  0.7309798390398312  0.035254722778077334  0.14612350061691431  1.0000
  O   O18       1.0  0.2690201613039842  0.9647452774180683  0.8538764988667767  1.0000
  O   O19       1.0  0.824271596493531  0.0745928799125505  0.9895244263356613  1.0000
  O   O20       1.0  0.17572840385028435  0.9254071202835952  0.010475573148029702  1.0000
  O   O21       1.0  0.8438911425190906  0.6372208760379957  0.24356244786948067  1.0000
  O   O22       1.0  0.15610885774865785  0.3627791239724339  0.7564375522529364  1.0000
  O   O23       1.0  0.6346050420020742  0.7862459300223184  0.45683651349471394  1.0000
  O   O24       1.0  0.36539495826567403  0.21375406998811128  0.5431634866277031  1.0000
  I   I1        1.0  0.5214652647677583  0.4041482590208035  0.2760267105532894  1.0000
  I   I2        1.0  0.47853473549998987  0.5958517409896262  0.7239732895691277  1.0000
  I   I3        1.0  0.32389705836944327  0.6865924576496307  0.2827339723771625  1.0000
  I   I4        1.0  0.6761029418983051  0.313407542360799  0.7172660277452544  1.0000
  I   I5        1.0  0.865199108191127  0.15975930104915745  0.1854823758241595  1.0000
  I   I6        1.0  0.13480089207662124  0.8402406989612721  0.8145176242982576  1.0000
  I   I7        1.0  0.729812382701606  0.8685114328877976  0.2513108980530207  1.0000
  I   I8        1.0  0.2701876175661424  0.13148856712263207  0.7486891020693963  1.0000
