data_image0
_chemical_formula_structural       H34C30N6O10I4
_chemical_formula_sum              "H34 C30 N6 O10 I4"
_cell_length_a       8.348445829313867
_cell_length_b       11.060621149227435
_cell_length_c       11.068906605333659
_cell_angle_alpha    81.01151561967622
_cell_angle_beta     71.83493501827952
_cell_angle_gamma    74.65290756604507

_space_group_name_H-M_alt    "P 1"
_space_group_IT_number       1

loop_
  _space_group_symop_operation_xyz
  'x, y, z'

loop_
  _atom_site_type_symbol
  _atom_site_label
  _atom_site_symmetry_multiplicity
  _atom_site_fract_x
  _atom_site_fract_y
  _atom_site_fract_z
  _atom_site_occupancy
  H   H1        1.0  0.23565572012563127  0.1295452287426039  0.11634611534437855  1.0000
  H   H2        1.0  0.7643442801928708  0.8704547719968672  0.8836538844871623  1.0000
  H   H3        1.0  0.04828361356802302  0.57953198310712  0.18720195504500062  1.0000
  H   H4        1.0  0.9517163870828441  0.4204680166950071  0.8127980447841255  1.0000
  H   H5        1.0  0.35731342186187903  0.45684407898430585  0.16017989832500823  1.0000
  H   H6        1.0  0.6426865775935842  0.5431559208160717  0.8398201014997756  1.0000
  H   H7        1.0  0.9536080236441067  0.1202072857922223  0.1191155189119058  1.0000
  H   H8        1.0  0.04639197700676063  0.8797927140099047  0.8808844809172205  1.0000
  H   H9        1.0  0.8209672889674114  0.2610889504330298  0.0680706180896895  1.0000
  H   H10       1.0  0.17903271168345564  0.7389110493690974  0.9319293817394368  1.0000
  H   H11       1.0  0.7874573658840077  0.21556984347813415  0.2327347747172214  1.0000
  H   H12       1.0  0.21254263476685925  0.7844301563239928  0.767265225111905  1.0000
  H   H13       1.0  0.6882017183431526  0.4551080605109023  0.2660146324525965  1.0000
  H   H14       1.0  0.31179828197534953  0.5448919402285687  0.7339853673789444  1.0000
  H   H15       1.0  0.7314582527003298  0.47485176007536095  0.09945745713101824  1.0000
  H   H16       1.0  0.26854174675513337  0.5251482397250168  0.9005425426937658  1.0000
  H   H17       1.0  0.7605577105013914  0.589991961100949  0.18206351866415924  1.0000
  H   H18       1.0  0.23944228824934355  0.41000803955871  0.8179364821169375  1.0000
  H   H19       1.0  0.9765156979241115  0.3756091909272026  0.46853334593672835  1.0000
  H   H20       1.0  0.023484301531351805  0.624390808873175  0.5314666538880555  1.0000
  H   H21       1.0  0.8174398103049635  0.3242600809076437  0.42754415737028045  1.0000
  H   H22       1.0  0.1825601888181346  0.675739919830078  0.572455842456918  1.0000
  H   H23       1.0  0.9781356687535366  0.11174986278511055  0.4477973415721243  1.0000
  H   H24       1.0  0.02186433070192672  0.888250137015267  0.5522026582526596  1.0000
  H   H25       1.0  0.12306529212423424  0.16041145209362145  0.5071646788097921  1.0000
  H   H26       1.0  0.8769347066265007  0.8395885485660373  0.4928353219713046  1.0000
  H   H27       1.0  0.6714282389903121  0.9521361781815889  0.12524027817193567  1.0000
  H   H28       1.0  0.32857176013278583  0.04786382255613264  0.874759721655263  1.0000
  H   H29       1.0  0.747587546198081  0.01853388300132649  0.22605110033680992  1.0000
  H   H30       1.0  0.2524124544527862  0.9814661168008005  0.7739488994923163  1.0000
  H   H31       1.0  0.45454403617271366  0.09211035486858467  0.3461082137401967  1.0000
  H   H32       1.0  0.5454559632827496  0.907889644931793  0.6538917860845872  1.0000
  H   H33       1.0  0.3804037978046006  0.003418089421569921  0.2637155640693579  1.0000
  H   H34       1.0  0.6195962028462667  0.996581910380557  0.7362844357597683  1.0000
  C   C1        1.0  0.18519005496235794  0.22912890810777076  0.13062266720984056  1.0000
  C   C2        1.0  0.8148099444931052  0.7708710916926069  0.8693773326149434  1.0000
  C   C3        1.0  0.012861927626487928  0.28993189166203026  0.14504492794968654  1.0000
  C   C4        1.0  0.9871380730243794  0.7100681081400969  0.8549550718794396  1.0000
  C   C5        1.0  0.959960752832716  0.4197007220811963  0.16429817173547462  1.0000
  C   C6        1.0  0.04003924625038395  0.5802992776411187  0.8357018290432073  1.0000
  C   C7        1.0  0.08454065632082806  0.4801054629801781  0.17065839085591208  1.0000
  C   C8        1.0  0.9154593431346352  0.5198945368201996  0.8293416089688718  1.0000
  C   C9        1.0  0.2550258478089111  0.41533512663844524  0.1559834079894928  1.0000
  C   C10       1.0  0.7449741525095911  0.5846648741010256  0.8440165918420481  1.0000
  C   C11       1.0  0.8878080883557601  0.2172918973472301  0.14061100528119827  1.0000
  C   C12       1.0  0.11219191109970307  0.7827081024531475  0.8593889945435855  1.0000
  C   C13       1.0  0.7762197280583394  0.4892556959494568  0.17841247335830196  1.0000
  C   C14       1.0  0.22378027259252786  0.5107443038526701  0.8215875264708243  1.0000
  C   C15       1.0  0.7642206906390364  0.33743535627563276  0.6261810207095827  1.0000
  C   C16       1.0  0.23577930881642678  0.6625646435247449  0.37381897911520107  1.0000
  C   C17       1.0  0.8913394941928614  0.3092914608671979  0.49735201761497005  1.0000
  C   C18       1.0  0.10866050645800568  0.6907085389349292  0.5026479822141562  1.0000
  C   C19       1.0  0.9854831742123978  0.17185245792430887  0.5150822921646023  1.0000
  C   C20       1.0  0.014516826106104094  0.828147542815162  0.48491770766693876  1.0000
  C   C21       1.0  0.8954733417294757  0.12829670286354006  0.6499699157284696  1.0000
  C   C22       1.0  0.10452665892139176  0.8717032969385868  0.3500300841006566  1.0000
  C   C23       1.0  0.7343131281865614  0.828471988691351  0.28233799280208693  1.0000
  C   C24       1.0  0.2656868721319408  0.1715280120481201  0.717662007029454  1.0000
  C   C25       1.0  0.6637527412806858  0.9575360731080937  0.22508317830612415  1.0000
  C   C26       1.0  0.33624725937018135  0.04246392669403325  0.7749168215230021  1.0000
  C   C27       1.0  0.47965309963286507  0.9997519209782487  0.31088210635728153  1.0000
  C   C28       1.0  0.5203468991178702  0.00024807968141011286  0.6891178944238151  1.0000
  C   C29       1.0  0.46139633129164487  0.8996055251256734  0.42107210887307644  1.0000
  C   C30       1.0  0.5386036689868593  0.10039447459839086  0.5789278919099479  1.0000
  N   N1        1.0  0.3025272094006804  0.2915445892207637  0.13568893785614555  1.0000
  N   N2        1.0  0.6974727900547829  0.7084554105796139  0.8643110619686383  1.0000
  N   N3        1.0  0.7694480493122015  0.2309039809577637  0.7066583890737613  1.0000
  N   N4        1.0  0.23055194977089863  0.7690960187645512  0.29334161170492074  1.0000
  N   N5        1.0  0.6104879365694034  0.8027060758815119  0.39488617232426415  1.0000
  N   N6        1.0  0.3895120628860599  0.19729392391886563  0.6051138275005197  1.0000
  O   O1        1.0  0.46812141024364107  0.2292157676501096  0.12101479936164586  1.0000
  O   O2        1.0  0.531878590407226  0.7707842321520175  0.8789852004674804  1.0000
  O   O3        1.0  0.665240291133873  0.44095519621240403  0.6587548288330967  1.0000
  O   O4        1.0  0.3347597095169942  0.559044803589723  0.3412451709960296  1.0000
  O   O5        1.0  0.9218029890437822  0.022968678467998126  0.7048151665758835  1.0000
  O   O6        1.0  0.07819701041168083  0.9770313213323797  0.29518483324890044  1.0000
  O   O7        1.0  0.8762075624627849  0.7579310322600777  0.24062559248519472  1.0000
  O   O8        1.0  0.12379243662031537  0.24206896746223733  0.7593744082934872  1.0000
  O   O9        1.0  0.3384764035264602  0.8997546575785046  0.5174463348048601  1.0000
  O   O10       1.0  0.661523596419679  0.10024534308290366  0.4825536659805788  1.0000
  I   I1        1.0  0.6223504131269667  0.22530568180784127  0.9052511731966605  1.0000
  I   I2        1.0  0.37764958632849643  0.7746943179925363  0.0947488266281234  1.0000
  I   I3        1.0  0.6410872740932351  0.6348706856025952  0.5139264728607734  1.0000
  I   I4        1.0  0.35891272498986515  0.3651293141197197  0.4860735279179085  1.0000
