data_image0
_chemical_formula_structural       H60C56N12O20Br8
_chemical_formula_sum              "H60 C56 N12 O20 Br8"
_cell_length_a       18.60462255644273
_cell_length_b       6.551867565951063
_cell_length_c       13.410881360602593
_cell_angle_alpha    90.0
_cell_angle_beta     95.76307005179838
_cell_angle_gamma    90.0

_space_group_name_H-M_alt    "P 1"
_space_group_IT_number       1

loop_
  _space_group_symop_operation_xyz
  'x, y, z'

loop_
  _atom_site_type_symbol
  _atom_site_label
  _atom_site_symmetry_multiplicity
  _atom_site_fract_x
  _atom_site_fract_y
  _atom_site_fract_z
  _atom_site_occupancy
  H   H1        1.0  0.44322705754225405  0.5897710402574492  0.85297667499775  1.0000
  H   H2        1.0  0.5567729420255743  0.08977103918531695  0.6470233243934533  1.0000
  H   H3        1.0  0.5567729422858233  0.4102289603605329  0.14702332496202092  1.0000
  H   H4        1.0  0.44322705780250315  0.9102289599063828  0.35297667556631734  1.0000
  H   H5        1.0  0.5259076009738481  0.668354263257205  0.9166296519054437  1.0000
  H   H6        1.0  0.47409239918609064  0.16835426371135517  0.5833703482346485  1.0000
  H   H7        1.0  0.4740923993916893  0.33164573736077707  0.08337034805376503  1.0000
  H   H8        1.0  0.5259076006966371  0.831645736906627  0.4166296524745733  1.0000
  H   H9        1.0  0.5263401701814848  0.9769015560177773  0.8199060764442974  1.0000
  H   H10       1.0  0.47365982944099383  0.47690155647192733  0.680093923696357  1.0000
  H   H11       1.0  0.4736598296465926  0.02309844307392253  0.1800939235154735  1.0000
  H   H12       1.0  0.5263401703870835  0.5230984441460548  0.3199060762634139  1.0000
  H   H13       1.0  0.45489135084031945  0.8744085548634533  0.7385069558332127  1.0000
  H   H14       1.0  0.5451086487821591  0.37440855531760336  0.7614930443074417  1.0000
  H   H15       1.0  0.5451086489877579  0.12559144575452888  0.2614930441265582  1.0000
  H   H16       1.0  0.4548913510459181  0.6255914453003788  0.23850695565232913  1.0000
  H   H17       1.0  0.1760309157824092  0.2732686935408323  0.27143359047561433  1.0000
  H   H18       1.0  0.8239690842512668  0.7732686930866822  0.228566409303273  1.0000
  H   H19       1.0  0.8239690840456682  0.7267313070771497  0.7285664094841565  1.0000
  H   H20       1.0  0.1760309161142705  0.22673130600501756  0.7714335906559359  1.0000
  H   H21       1.0  0.17908873327088842  0.5787949591208701  0.3842826878371258  1.0000
  H   H22       1.0  0.8209112662253277  0.07879495957502021  0.11571731194232363  1.0000
  H   H23       1.0  0.8209112665571889  0.42120503997082964  0.6157173121226451  1.0000
  H   H24       1.0  0.1790887336027497  0.9212050395166795  0.8842826880174472  1.0000
  H   H25       1.0  0.33284994461727735  0.8507022866221393  0.2023505433456241  1.0000
  H   H26       1.0  0.6671500554163987  0.35070228707628953  0.29764945643326324  1.0000
  H   H27       1.0  0.6671500552108  0.1492977139958427  0.7976494566141468  1.0000
  H   H28       1.0  0.33284994494913867  0.6492977135416925  0.7023505435259456  1.0000
  H   H29       1.0  0.32579286099287263  0.5335769068605304  0.09924990544666805  1.0000
  H   H30       1.0  0.6742071390954539  0.03357690731468047  0.4007500950816703  1.0000
  H   H31       1.0  0.6742071388352048  0.4664230922311694  0.9007500945131027  1.0000
  H   H32       1.0  0.3257928612700835  0.9664230917770192  0.5992499048775386  1.0000
  H   H33       1.0  0.20818196656450985  0.9892404821615423  0.3761769364316888  1.0000
  H   H34       1.0  0.7918180329863567  0.48924048108941  0.12382306409721158  1.0000
  H   H35       1.0  0.7918180332635675  0.010759518456439836  0.623823063528082  1.0000
  H   H36       1.0  0.20818196684172072  0.5107595180022897  0.8761769358625593  1.0000
  H   H37       1.0  0.2981255945056841  0.042058621793891464  0.34612641929276206  1.0000
  H   H38       1.0  0.701874405527992  0.5420586228660237  0.15387358048612537  1.0000
  H   H39       1.0  0.7018744058598533  0.9579413772978081  0.6538735806664469  1.0000
  H   H40       1.0  0.2981255943000854  0.4579413777519584  0.8461264194736455  1.0000
  H   H41       1.0  0.2828203022253643  0.8782579840141688  0.44770305239311353  1.0000
  H   H42       1.0  0.7171796978083118  0.37825798446831893  0.05229694738577388  1.0000
  H   H43       1.0  0.717179697602713  0.12174201660381329  0.5522969475666574  1.0000
  H   H44       1.0  0.2828203020197656  0.6217420161496632  0.947703052573997  1.0000
  H   H45       1.0  0.8714738478903665  0.3326807750705199  0.9047913969551455  1.0000
  H   H46       1.0  0.12852615173211215  0.8326807746163697  0.5952086031855087  1.0000
  H   H47       1.0  0.12852615193771086  0.6673192255474623  0.09520860300462522  1.0000
  H   H48       1.0  0.8714738480959653  0.1673192260016124  0.4047913967742621  1.0000
  H   H49       1.0  0.9058690567001214  0.10301572539524088  0.8561910420123965  1.0000
  H   H50       1.0  0.09413094340516698  0.6030157249410907  0.643808957378245  1.0000
  H   H51       1.0  0.09413094312795611  0.8969842752227413  0.1438089579473744  1.0000
  H   H52       1.0  0.9058690569603705  0.3969842756768913  0.3561910425809639  1.0000
  H   H53       1.0  0.9505266344825857  0.31309146580746405  0.7286649054074311  1.0000
  H   H54       1.0  0.04947336513989298  0.8130914668795962  0.7713350947332233  1.0000
  H   H55       1.0  0.04947336534549169  0.6869085332842356  0.27133509455233984  1.0000
  H   H56       1.0  0.9505266346881844  0.1869085337383858  0.22866490522654756  1.0000
  H   H57       1.0  0.944110983017926  0.5372278002522571  0.8019972492073794  1.0000
  H   H58       1.0  0.05588901714201289  0.037227799180124914  0.698002750932713  1.0000
  H   H59       1.0  0.0558890168101516  0.4627722003657249  0.19800275075239154  1.0000
  H   H60       1.0  0.9441109832235245  0.9627721999115748  0.3019972490264958  1.0000
  C   C1        1.0  0.43096066653685816  0.792692504499074  0.9730200848184571  1.0000
  C   C2        1.0  0.5690393330856206  0.29269250495322413  0.5269799153221971  1.0000
  C   C3        1.0  0.5690393332912191  0.20730749459262574  0.026979915141313596  1.0000
  C   C4        1.0  0.4309606667424568  0.707307495664758  0.4730200846375737  1.0000
  C   C5        1.0  0.47204404928388594  0.7229100271523066  0.8875137200537718  1.0000
  C   C6        1.0  0.5279559508760527  0.22291002760645673  0.6124862800863206  1.0000
  C   C7        1.0  0.5279559510816515  0.2770899719393931  0.11248627990543705  1.0000
  C   C8        1.0  0.4720440489520246  0.777089971485243  0.3875137198734503  1.0000
  C   C9        1.0  0.4723920898834184  0.9076252320641636  0.8173558799029089  1.0000
  C   C10       1.0  0.5276079102765203  0.4076252325183137  0.6826441202371835  1.0000
  C   C11       1.0  0.527607909944659  0.09237476702753619  0.18264412005686192  1.0000
  C   C12       1.0  0.47239209008901717  0.5923747665733861  0.3173558797220255  1.0000
  C   C13       1.0  0.4218735291229252  0.0623878040704361  0.8574382908059063  1.0000
  C   C14       1.0  0.5781264710370134  0.5623878036162859  0.6425617093341858  1.0000
  C   C15       1.0  0.5781264712426122  0.9376121965475459  0.1425617091533025  1.0000
  C   C16       1.0  0.4218735287910639  0.43761219547541375  0.35743829062558485  1.0000
  C   C17       1.0  0.20986449897814233  0.4059284644002013  0.26168944458535887  1.0000
  C   C18       1.0  0.7901355005180737  0.9059284639460512  0.2383105551940905  1.0000
  C   C19       1.0  0.790135500849935  0.5940715362177807  0.738310555374412  1.0000
  C   C20       1.0  0.20986449931000362  0.0940715351456485  0.7616894447656803  1.0000
  C   C21       1.0  0.21272805503926462  0.5765041557966394  0.32227831818523817  1.0000
  C   C22       1.0  0.7872719449944114  0.0765041562507895  0.17772168159364926  1.0000
  C   C23       1.0  0.7872719453262728  0.4234958432950604  0.6777216817739707  1.0000
  C   C24       1.0  0.21272805483366589  0.9234958443671927  0.8222783183661216  1.0000
  C   C25       1.0  0.25753354297621955  0.7423225364436994  0.30429012304557507  1.0000
  C   C26       1.0  0.7424664570574565  0.24232253689784952  0.1957098767333123  1.0000
  C   C27       1.0  0.7424664573893177  0.25767746264800034  0.6957098769136337  1.0000
  C   C28       1.0  0.25753354277062085  0.7576774637201326  0.8042901232264585  1.0000
  C   C29       1.0  0.29791518101794734  0.7265211944663342  0.22196226921345422  1.0000
  C   C30       1.0  0.7020848190157288  0.22652119492048434  0.2780377305654332  1.0000
  C   C31       1.0  0.7020848188101301  0.2734788046253655  0.7780377307463165  1.0000
  C   C32       1.0  0.2979151813498086  0.7734788056974978  0.7219622693937756  1.0000
  C   C33       1.0  0.2941473303171968  0.5534597461714147  0.1623760745376214  1.0000
  C   C34       1.0  0.7058526697711297  0.05345974662556483  0.3376239259907169  1.0000
  C   C35       1.0  0.7058526695108805  0.44654025292028504  0.8376239254221495  1.0000
  C   C36       1.0  0.29414733064905807  0.9465402539924174  0.6623760747179429  1.0000
  C   C37       1.0  0.26218815116956834  0.9244229052301999  0.37133168945500533  1.0000
  C   C38       1.0  0.7378118488641077  0.42442290568435004  0.128668310323882  1.0000
  C   C39       1.0  0.737811849195969  0.07557709386149984  0.6286683105042034  1.0000
  C   C40       1.0  0.26218815096396964  0.5755770949336321  0.8713316896358887  1.0000
  C   C41       1.0  0.9755442602781135  0.2370767410001098  0.9726154904375564  1.0000
  C   C42       1.0  0.02445573988182521  0.7370767405459597  0.5273845097025359  1.0000
  C   C43       1.0  0.02445574008742392  0.7629232596178723  0.027384509521652455  1.0000
  C   C44       1.0  0.9755442599462523  0.26292325854574006  0.4726154902572349  1.0000
  C   C45       1.0  0.9201442667572365  0.25816130789793706  0.8827104302264633  1.0000
  C   C46       1.0  0.07985573286524214  0.7581613089700693  0.6172895699141909  1.0000
  C   C47       1.0  0.07985573307084085  0.7418386911937627  0.11728956973330744  1.0000
  C   C48       1.0  0.9201442669628352  0.24183869164791277  0.3827104300455799  1.0000
  C   C49       1.0  0.9589633912618744  0.37460182234982803  0.8049092994250426  1.0000
  C   C50       1.0  0.0410366088980643  0.8746018218956778  0.6950907007150496  1.0000
  C   C51       1.0  0.04103660910366301  0.6253981782681541  0.1950907005341662  1.0000
  C   C52       1.0  0.958963390930013  0.12539817872230424  0.3049092992447212  1.0000
  C   C53       1.0  0.03806907321269859  0.36451455038733277  0.8431702123015501  1.0000
  C   C54       1.0  0.9619309264097801  0.8645145499331826  0.656829787839104  1.0000
  C   C55       1.0  0.9619309266153788  0.6354854502306493  0.15682978765822062  1.0000
  C   C56       1.0  0.03806907341829731  0.13548544915851712  0.34317021212066673  1.0000
  N   N1        1.0  0.40305485858530765  0.9860204994943655  0.9487520362963568  1.0000
  N   N2        1.0  0.596945141037171  0.48602049994851565  0.5512479638442974  1.0000
  N   N3        1.0  0.5969451412427697  0.013979499597334216  0.05124796366341403  1.0000
  N   N4        1.0  0.4030548587909064  0.5139795006694664  0.4487520361154734  1.0000
  N   N5        1.0  0.2505427661001703  0.3967762006530485  0.18317766179471187  1.0000
  N   N6        1.0  0.7494572339335058  0.8967762017251808  0.3168223379841755  1.0000
  N   N7        1.0  0.7494572342653671  0.6032237984386511  0.8168223381644969  1.0000
  N   N8        1.0  0.2505427658945716  0.10322379889280128  0.6831776619755955  1.0000
  N   N9        1.0  0.042459950822473835  0.2887536493917787  0.9403178087195379  1.0000
  N   N10       1.0  0.9575400487453544  0.7887536489376286  0.5596821906716655  1.0000
  N   N11       1.0  0.9575400490056036  0.7112463512262033  0.05968219124023292  1.0000
  N   N12       1.0  0.04245995108272296  0.21124635015407114  0.44031780928810543  1.0000
  O   O1        1.0  0.4008231369502813  0.22487123635658124  0.8200441869352884  1.0000
  O   O2        1.0  0.5991768632096575  0.7248712359024311  0.6799558132048038  1.0000
  O   O3        1.0  0.5991768634152561  0.7751287627351185  0.1799558130239204  1.0000
  O   O4        1.0  0.40082313661842006  0.27512876318926865  0.32004418675496693  1.0000
  O   O5        1.0  0.4218169871051659  0.7001961309231789  0.05038565427306417  1.0000
  O   O6        1.0  0.5781830129831605  0.20019613137732903  0.44961434625527413  1.0000
  O   O7        1.0  0.5781830127775618  0.2998038696948032  0.9496143464361575  1.0000
  O   O8        1.0  0.4218169873823768  0.799803869240653  0.5503856537039347  1.0000
  O   O9        1.0  0.2448185705897064  0.22802207690581375  0.12581933828811181  1.0000
  O   O10       1.0  0.75518142896116  0.7280220779779459  0.3741806622407885  1.0000
  O   O11       1.0  0.755181429238371  0.771977922185886  0.874180661671659  1.0000
  O   O12       1.0  0.2448185708669173  0.2719779226400361  0.6258193377189823  1.0000
  O   O13       1.0  0.9663467656636778  0.18468253025873782  0.05800098381272375  1.0000
  O   O14       1.0  0.033653234369998196  0.68468253133087  0.44199901596616364  1.0000
  O   O15       1.0  0.033653234164399484  0.8153174688329619  0.9419990161470471  1.0000
  O   O16       1.0  0.9663467659955393  0.315317469287112  0.5580009839930452  1.0000
  O   O17       1.0  0.09020731239552925  0.4151661694347985  0.7994570809855696  1.0000
  O   O18       1.0  0.9097926872269494  0.9151661689806484  0.7005429191550847  1.0000
  O   O19       1.0  0.9097926874325482  0.5848338311831836  0.20054291897420132  1.0000
  O   O20       1.0  0.09020731260112794  0.08483383163733373  0.2994570808046861  1.0000
  Br  Br1       1.0  0.3363556472125001  0.11588541928804778  0.02796977467969772  1.0000
  Br  Br2       1.0  0.663644352821176  0.61588542036018  0.4720302250991897  1.0000
  Br  Br3       1.0  0.6636443526155772  0.8841145798036519  0.972030225280073  1.0000
  Br  Br4       1.0  0.33635564754436137  0.3841145802578021  0.5279697748600192  1.0000
  Br  Br5       1.0  0.13224454739191618  0.25487025847073913  0.020608051960992597  1.0000
  Br  Br6       1.0  0.8677554526964103  0.7548702595428713  0.4793919485673457  1.0000
  Br  Br7       1.0  0.8677554524908115  0.7451297406209605  0.9793919487482292  1.0000
  Br  Br8       1.0  0.13224454713166706  0.2451297410751107  0.5206080513924252  1.0000
