data_image0
_chemical_formula_structural       H68C56N10O12S2I2
_chemical_formula_sum              "H68 C56 N10 O12 S2 I2"
_cell_length_a       8.197609399681513
_cell_length_b       10.1284978687232
_cell_length_c       19.235186604537173
_cell_angle_alpha    77.67446271930248
_cell_angle_beta     88.80467795330432
_cell_angle_gamma    65.95265589927848

_space_group_name_H-M_alt    "P 1"
_space_group_IT_number       1

loop_
  _space_group_symop_operation_xyz
  'x, y, z'

loop_
  _atom_site_type_symbol
  _atom_site_label
  _atom_site_symmetry_multiplicity
  _atom_site_fract_x
  _atom_site_fract_y
  _atom_site_fract_z
  _atom_site_occupancy
  H   H1        1.0  0.13547536312506908  0.6731998591507843  0.7228343364587132  1.0000
  H   H2        1.0  0.8645246369595178  0.32680014124859114  0.27716566360780787  1.0000
  H   H3        1.0  0.227965847358724  0.7514171728122845  0.6043744114892136  1.0000
  H   H4        1.0  0.7720341527258625  0.24858282758709124  0.3956255885773074  1.0000
  H   H5        1.0  0.03948704666579762  0.18977260346653366  0.6229590411053672  1.0000
  H   H6        1.0  0.9605129533143072  0.8102273971902605  0.37704095842755597  1.0000
  H   H7        1.0  0.9294442716899919  0.13622818627785857  0.7392223039611754  1.0000
  H   H8        1.0  0.07055572893638697  0.8637718130423283  0.26077769610122103  1.0000
  H   H9        1.0  0.13017579165839854  0.6278657249293202  0.8277757794672003  1.0000
  H   H10       1.0  0.8698242084261882  0.3721342754700553  0.17222422059932072  1.0000
  H   H11       1.0  0.8947748755204555  0.6817266820212095  0.8247094618899656  1.0000
  H   H12       1.0  0.10522512456413122  0.318273318378166  0.17529053817655538  1.0000
  H   H13       1.0  0.01458646945295586  0.5639000008270943  0.9456425970718562  1.0000
  H   H14       1.0  0.9854135305271492  0.4360999998296998  0.054357402461067066  1.0000
  H   H15       1.0  0.1380629501674162  0.6752865734287629  0.9462486853620976  1.0000
  H   H16       1.0  0.8619370486966083  0.3247134269719523  0.05375131470486556  1.0000
  H   H17       1.0  0.9911147096672053  0.9201769241304574  0.9471083678293726  1.0000
  H   H18       1.0  0.008885290417381467  0.07982307626891821  0.05289163223714846  1.0000
  H   H19       1.0  0.7531000136987595  0.001691820389777119  0.948187113918082  1.0000
  H   H20       1.0  0.24689998516526496  0.998308180010938  0.051812886148881174  1.0000
  H   H21       1.0  0.709408306828671  0.9893399681684212  0.8258670151566893  1.0000
  H   H22       1.0  0.29059169379770794  0.01066003115176584  0.17413298490570725  1.0000
  H   H23       1.0  0.8602997404437236  0.07400482936592805  0.8309239016754132  1.0000
  H   H24       1.0  0.13970025964086308  0.9259951710334474  0.16907609839110785  1.0000
  H   H25       1.0  0.29930904853771545  0.37465911679877  0.261242216171792  1.0000
  H   H26       1.0  0.7006909503263092  0.6253408836019453  0.7387577838951712  1.0000
  H   H27       1.0  0.1872366845779557  0.315287254894709  0.37640656396268185  1.0000
  H   H28       1.0  0.812763314827861  0.6847127444268177  0.6235934361001568  1.0000
  H   H29       1.0  0.47206909123644525  0.861793529509668  0.3960842927851003  1.0000
  H   H30       1.0  0.5279309088481414  0.13820647088970747  0.6039157072814206  1.0000
  H   H31       1.0  0.5965454881574409  0.8973041230760442  0.2802860126718061  1.0000
  H   H32       1.0  0.4034545119271457  0.1026958773233313  0.7197139873947149  1.0000
  H   H33       1.0  0.6435523850579042  0.3116920952285113  0.17349901572702103  1.0000
  H   H34       1.0  0.3564476155684745  0.6883079040916757  0.8265009843353754  1.0000
  H   H35       1.0  0.4060351675670831  0.39992537957743063  0.17312252979466447  1.0000
  H   H36       1.0  0.5939648330592956  0.6000746197427566  0.826877470267732  1.0000
  H   H37       1.0  0.3614144414298601  0.35478333573301746  0.05852058244526869  1.0000
  H   H38       1.0  0.6385855591965186  0.6452166635871697  0.9414794176171278  1.0000
  H   H39       1.0  0.516329773408657  0.43940008748133763  0.0527946744710326  1.0000
  H   H40       1.0  0.48367022721772174  0.5605999118388494  0.9472053255913641  1.0000
  H   H41       1.0  0.7098592398417067  0.9981034431276122  0.05713390620408134  1.0000
  H   H42       1.0  0.290140758917836  0.0018965575305216421  0.9428660933292841  1.0000
  H   H43       1.0  0.4722039755627913  0.1002545052620732  0.06059333545796728  1.0000
  H   H44       1.0  0.5277960245217954  0.8997454951373023  0.9394066646085536  1.0000
  H   H45       1.0  0.5993647666849968  0.948330203275806  0.17688855708856546  1.0000
  H   H46       1.0  0.4006352321790277  0.05166979712490947  0.8231114429783977  1.0000
  H   H47       1.0  0.7738742790008004  0.010001643078340294  0.17603928726275375  1.0000
  H   H48       1.0  0.2261257198632241  0.9899983573223747  0.8239607128042095  1.0000
  H   H49       1.0  0.6905191207841245  0.7249229632006681  0.04083860944593869  1.0000
  H   H50       1.0  0.3094808793004623  0.27507703719870746  0.9591613906205824  1.0000
  H   H51       1.0  0.40808039055367046  0.7060555294573612  0.08382305925506424  1.0000
  H   H52       1.0  0.5919196095309164  0.29394447094201426  0.916176940811457  1.0000
  H   H53       1.0  0.3728439133007085  0.6415206802768919  0.21395156958872846  1.0000
  H   H54       1.0  0.6271560861051078  0.35847931904463504  0.7860484304741102  1.0000
  H   H55       1.0  0.6194449958859068  0.5971970123512247  0.3032306025539044  1.0000
  H   H56       1.0  0.38055500419868  0.40280298804815085  0.6967693975126166  1.0000
  H   H57       1.0  0.22383887526428434  0.5749456575833567  0.36410581549031384  1.0000
  H   H58       1.0  0.7761611235997398  0.42505434281735865  0.6358941845766493  1.0000
  H   H59       1.0  0.44915699950846877  0.45613763353988596  0.3945266523724121  1.0000
  H   H60       1.0  0.5508430011179101  0.5438623657803009  0.6054733476899845  1.0000
  H   H61       1.0  0.37815567613036344  0.6542269490495544  0.37778297190104354  1.0000
  H   H62       1.0  0.6218443243915336  0.3457730505280513  0.622217027627755  1.0000
  H   H63       1.0  0.3684944056856512  0.32658791108509583  0.5122632194204793  1.0000
  H   H64       1.0  0.6315055949407274  0.6734120882350912  0.4877367806419172  1.0000
  H   H65       1.0  0.14321873903721882  0.42307231442217536  0.4788017885689231  1.0000
  H   H66       1.0  0.8567812610473678  0.5769276859772  0.521198211497598  1.0000
  H   H67       1.0  0.20701108424151907  0.4392728681242335  0.5642528226748211  1.0000
  H   H68       1.0  0.7929889146225053  0.5607271322764817  0.43574717739214197  1.0000
  C   C1        1.0  0.11303779859480767  0.7887888552623352  0.7043585612875561  1.0000
  C   C2        1.0  0.8869622020315712  0.21121114405785196  0.2956414387748403  1.0000
  C   C3        1.0  0.16681620480798276  0.8306844931333557  0.6379417155516365  1.0000
  C   C4        1.0  0.8331837945978338  0.169315506188171  0.3620582845112022  1.0000
  C   C5        1.0  0.056680001540728234  0.07691179447196031  0.6471829945764598  1.0000
  C   C6        1.0  0.9433199990856503  0.923088204848227  0.3528170054859367  1.0000
  C   C7        1.0  0.9954179809794685  0.044675078159834535  0.7131356212056958  1.0000
  C   C8        1.0  0.00458201964691023  0.9553249211603525  0.2868643788567006  1.0000
  C   C9        1.0  0.025761069975125336  0.8956874446140745  0.7456354291367995  1.0000
  C   C10       1.0  0.9742389306512534  0.10431255470611266  0.25436457092559706  1.0000
  C   C11       1.0  0.004226166381532486  0.704569005869502  0.8439505113757784  1.0000
  C   C12       1.0  0.9957738337030543  0.2954309945298736  0.15604948869074256  1.0000
  C   C13       1.0  0.015199420516321116  0.6731584825004654  0.9252099813136591  1.0000
  C   C14       1.0  0.9848005795682654  0.3268415178989103  0.07479001875286183  1.0000
  C   C15       1.0  0.8658051241319479  0.921987246888278  0.9263974918528943  1.0000
  C   C16       1.0  0.13419487527386859  0.07801275243324876  0.07360250820994428  1.0000
  C   C17       1.0  0.8447343422298355  0.9696831994134674  0.8454834225828599  1.0000
  C   C18       1.0  0.15526565839654324  0.030316799906719923  0.15451657747953648  1.0000
  C   C19       1.0  0.3440679959558826  0.2581752268579289  0.28782611747977765  1.0000
  C   C20       1.0  0.6559320041287042  0.7418247735414466  0.7121738825867433  1.0000
  C   C21       1.0  0.2796718506787991  0.22631677971141756  0.3531320286627006  1.0000
  C   C22       1.0  0.7203281494057877  0.773683220687958  0.6468679714038205  1.0000
  C   C23       1.0  0.43619109126236094  0.9728894109031107  0.36316174804511325  1.0000
  C   C24       1.0  0.5638089081434554  0.027110588418416202  0.6368382520177253  1.0000
  C   C25       1.0  0.5042570330809201  0.9945662160244019  0.2977357379725062  1.0000
  C   C26       1.0  0.4957429675454588  0.005433783295785016  0.7022642620898903  1.0000
  C   C27       1.0  0.4581131404295407  0.1409948330230383  0.2564026753919966  1.0000
  C   C28       1.0  0.5418868601968378  0.8590051662971488  0.7435973246703999  1.0000
  C   C29       1.0  0.5168528343362407  0.31000464969766994  0.15661008744008822  1.0000
  C   C30       1.0  0.4831471649650941  0.6899953498812754  0.8433899120891526  1.0000
  C   C31       1.0  0.49685399347067427  0.33855598149641164  0.07577642882660256  1.0000
  C   C32       1.0  0.5031460071557046  0.6614440178237754  0.924223571235794  1.0000
  C   C33       1.0  0.6068649433774402  0.08655949111744547  0.07790315148895915  1.0000
  C   C34       1.0  0.39313505724893855  0.9134405082027415  0.9220968485734373  1.0000
  C   C35       1.0  0.6324781532631348  0.044067730359852945  0.15899213924376868  1.0000
  C   C36       1.0  0.3675218456008896  0.9559322700408623  0.8410078608231945  1.0000
  C   C37       1.0  0.8059755456682398  0.6727709694341556  0.14844608869656026  1.0000
  C   C38       1.0  0.19402445441634686  0.32722903096522  0.8515539113699607  1.0000
  C   C39       1.0  0.6724473761877929  0.6978067671885902  0.09759623808362622  1.0000
  C   C40       1.0  0.32755262267623153  0.3021932332121251  0.9024037619833369  1.0000
  C   C41       1.0  0.5155877320530724  0.6863305767673895  0.12251408765816349  1.0000
  C   C42       1.0  0.4844122680315143  0.31366942363198597  0.8774859124083576  1.0000
  C   C43       1.0  0.4958971403599117  0.6503869465194695  0.1958605457783744  1.0000
  C   C44       1.0  0.5041028596201932  0.3496130541373248  0.8041394537545488  1.0000
  C   C45       1.0  0.6325280184574925  0.6256559363511222  0.2460354085270103  1.0000
  C   C46       1.0  0.36747198162709427  0.3743440640482534  0.7539645915395107  1.0000
  C   C47       1.0  0.7882657417681548  0.6375757639536269  0.22157333429963294  1.0000
  C   C48       1.0  0.211734258316432  0.36242423644574867  0.778426665766888  1.0000
  C   C49       1.0  0.9518431472392626  0.6163670729512707  0.2649072688846253  1.0000
  C   C50       1.0  0.04815685284532399  0.38363292744810495  0.7350927311818957  1.0000
  C   C51       1.0  0.2889178933847496  0.5590481319942819  0.4733853895485612  1.0000
  C   C52       1.0  0.7110821065953552  0.44095186866251235  0.5266146099843619  1.0000
  C   C53       1.0  0.3392590487924207  0.5622885664259873  0.397644013866338  1.0000
  C   C54       1.0  0.6607409518339581  0.43771143289419984  0.6023559861960585  1.0000
  C   C55       1.0  0.24857706364364066  0.43003066524694833  0.5103262645396646  1.0000
  C   C56       1.0  0.7514229357621759  0.5699693340745785  0.48967373552317417  1.0000
  N   N1        1.0  0.1416270568295072  0.972401597428009  0.6099043619076941  1.0000
  N   N2        1.0  0.8583729432550795  0.027598402971366655  0.39009563815882686  1.0000
  N   N3        1.0  0.9777197636317068  0.857568255313879  0.8126234506131046  1.0000
  N   N4        1.0  0.022280236452880037  0.14243174508549664  0.18737654945341634  1.0000
  N   N5        1.0  0.32430096809377634  0.08606138410732643  0.39073139432186965  1.0000
  N   N6        1.0  0.6756990319908106  0.9139386162920491  0.6092686057446514  1.0000
  N   N7        1.0  0.5160693920725279  0.1664229011666205  0.19017157528992068  1.0000
  N   N8        1.0  0.4839306067914966  0.8335770992340948  0.8098284247770424  1.0000
  N   N9        1.0  0.0816066857038237  0.6347818878205934  0.22365605350639792  1.0000
  N   N10       1.0  0.9183933143807631  0.36521811257878223  0.776343946560123  1.0000
  O   O1        1.0  0.863181787999715  0.7790361415645878  0.9504762609961396  1.0000
  O   O2        1.0  0.13681821262666374  0.22096385775559926  0.04952373906625695  1.0000
  O   O3        1.0  0.6289233265053351  0.22015836927729396  0.049222538720244326  1.0000
  O   O4        1.0  0.37107667357925167  0.7798416311220816  0.9507774613462767  1.0000
  O   O5        1.0  0.13572298960287868  0.5583437443784806  0.10460362400027272  1.0000
  O   O6        1.0  0.8642770110235003  0.4416562549417067  0.8953963760621237  1.0000
  O   O7        1.0  0.005569082338656219  0.8236976445660308  0.10509737039106035  1.0000
  O   O8        1.0  0.9944309181832406  0.17630235501157482  0.8949026291377383  1.0000
  O   O9        1.0  0.9627726325008921  0.5851675628710581  0.33164373707091205  1.0000
  O   O10       1.0  0.037227367583694444  0.41483243752831744  0.6683562629956089  1.0000
  O   O11       1.0  0.280653957380387  0.6572225013636067  0.5036023451105698  1.0000
  O   O12       1.0  0.7193460427041997  0.34277749903576893  0.49639765495595123  1.0000
  S   S1        1.0  0.021850386641919715  0.6754096990738039  0.1389357604604978  1.0000
  S   S2        1.0  0.9781496134426669  0.32459030132557193  0.8610642396060231  1.0000
  I   I1        1.0  0.23023393376470522  0.03358073030305551  0.5005044765243281  1.0000
  I   I2        1.0  0.7697660668616735  0.9664192690171316  0.4994955235380684  1.0000
