data_image0
_chemical_formula_structural       H88C80N16O24I8
_chemical_formula_sum              "H88 C80 N16 O24 I8"
_cell_length_a       11.564297624728411
_cell_length_b       14.470949661301757
_cell_length_c       15.204543634651293
_cell_angle_alpha    92.77518716766897
_cell_angle_beta     110.90873043054815
_cell_angle_gamma    98.80873275766716

_space_group_name_H-M_alt    "P 1"
_space_group_IT_number       1

loop_
  _space_group_symop_operation_xyz
  'x, y, z'

loop_
  _atom_site_type_symbol
  _atom_site_label
  _atom_site_symmetry_multiplicity
  _atom_site_fract_x
  _atom_site_fract_y
  _atom_site_fract_z
  _atom_site_occupancy
  H   H1        1.0  0.1282191055951313  0.05511175128955284  0.19071032803044424  1.0000
  H   H2        1.0  0.8717808948507769  0.9448882486840583  0.8092896723724375  1.0000
  H   H3        1.0  0.09987482869437285  0.03576565539609689  0.06926318099277552  1.0000
  H   H4        1.0  0.900125171403757  0.9642343445000596  0.930736818701617  1.0000
  H   H5        1.0  0.9013759601238126  0.08785298683451527  0.030628717463773186  1.0000
  H   H6        1.0  0.09862403910995725  0.9121470130625664  0.9693712822310291  1.0000
  H   H7        1.0  0.9265917369956236  0.10410289419883866  0.15199237156490036  1.0000
  H   H8        1.0  0.0734082631025062  0.8958971056973178  0.8480076281294922  1.0000
  H   H9        1.0  0.20711108950198376  0.5458763296482021  0.9887625831233611  1.0000
  H   H10       1.0  0.7928889109439246  0.4541236703254091  0.01123741727952074  1.0000
  H   H11       1.0  0.5177057755235466  0.6536429272594148  0.9042057360511512  1.0000
  H   H12       1.0  0.4822942245745832  0.34635707263674176  0.09579426364324123  1.0000
  H   H13       1.0  0.6612674802772809  0.6551950200051094  0.07316499615825764  1.0000
  H   H14       1.0  0.338732519820849  0.3448049798910471  0.9268350035361349  1.0000
  H   H15       1.0  0.5677521891194337  0.6019919812903686  0.19308162091953152  1.0000
  H   H16       1.0  0.4322478113264744  0.3980080186832426  0.8069183794833502  1.0000
  H   H17       1.0  0.2570893564834223  0.5312700042078615  0.790441234200412  1.0000
  H   H18       1.0  0.7429106439624859  0.46872999576574953  0.20955876620246977  1.0000
  H   H19       1.0  0.2827846483313513  0.6557700822583064  0.7974278218710359  1.0000
  H   H20       1.0  0.7172153521145569  0.3442299177153048  0.20257217853184586  1.0000
  H   H21       1.0  0.16139529281276166  0.5949941541070997  0.8301516832341926  1.0000
  H   H22       1.0  0.8386047064210082  0.40500584578998217  0.16984831646060963  1.0000
  H   H23       1.0  0.054395562288108365  0.030032058665037956  0.4395666892569368  1.0000
  H   H24       1.0  0.9456044378100213  0.9699679412311184  0.5604333104374557  1.0000
  H   H25       1.0  0.0007531109543988042  0.0010057750998322533  0.3164524001920298  1.0000
  H   H26       1.0  0.9992468886271495  0.9989942248747041  0.6835476002112618  1.0000
  H   H27       1.0  0.8054684127240506  0.051836242818042645  0.2948600711183109  1.0000
  H   H28       1.0  0.1945315873740792  0.9481637570781138  0.7051399285760815  1.0000
  H   H29       1.0  0.848318050988356  0.06056478630456146  0.4195845092954164  1.0000
  H   H30       1.0  0.1516819487288357  0.9394352143693862  0.5804154911090019  1.0000
  H   H31       1.0  0.23451403269899523  0.5431904010731213  0.5263118406670827  1.0000
  H   H32       1.0  0.7654859673991348  0.4568095988230352  0.4736881590273098  1.0000
  H   H33       1.0  0.6236171563089548  0.6701585226908708  0.5885285572512717  1.0000
  H   H34       1.0  0.3763828429248152  0.32984147720621093  0.4114714424435306  1.0000
  H   H35       1.0  0.579776599715225  0.6408275987259563  0.41457641083698615  1.0000
  H   H36       1.0  0.42022340038290484  0.35917240117020033  0.5854235888574063  1.0000
  H   H37       1.0  0.36095235408577214  0.5668929352313634  0.30390272511726274  1.0000
  H   H38       1.0  0.6390476460123576  0.43310706466479304  0.6960972745771297  1.0000
  H   H39       1.0  0.37070527616257654  0.6422557991356268  0.685710326625487  1.0000
  H   H40       1.0  0.6292947242833317  0.3577442008379844  0.3142896737773948  1.0000
  H   H41       1.0  0.5375195641782308  0.6719960141770581  0.7162409281018519  1.0000
  H   H42       1.0  0.46248043519118254  0.328003986419435  0.2837590715940772  1.0000
  H   H43       1.0  0.46219232493408624  0.5527904357290674  0.7054565762372895  1.0000
  H   H44       1.0  0.5378076751640434  0.44720956416708907  0.29454342345710294  1.0000
  H   H45       1.0  0.8832062406117973  0.3209403494948374  0.5241154950055845  1.0000
  H   H46       1.0  0.11679375896975075  0.6790596504796991  0.47588450539770705  1.0000
  H   H47       1.0  0.902506658230728  0.3214338256337502  0.6450336416572295  1.0000
  H   H48       1.0  0.09749334235082374  0.6785661750392723  0.3549663587467789  1.0000
  H   H49       1.0  0.049406898278810535  0.4556238287581112  0.5651236280383054  1.0000
  H   H50       1.0  0.9505931009549593  0.5443761711389705  0.43487637165649684  1.0000
  H   H51       1.0  0.06963433513856132  0.45458153296015624  0.6857065563563752  1.0000
  H   H52       1.0  0.9303656640952085  0.5454184669369255  0.3142934433384271  1.0000
  H   H53       1.0  0.6442620784515991  0.0906101199893178  0.7304616589142924  1.0000
  H   H54       1.0  0.3557379211299492  0.9093898799852186  0.2695383414889992  1.0000
  H   H55       1.0  0.8059759185009776  0.12500500816457744  0.6544206009028859  1.0000
  H   H56       1.0  0.1940240819449305  0.8749949918090336  0.3455793994999957  1.0000
  H   H57       1.0  0.7342342026513866  0.15126808730814947  0.48406963904147793  1.0000
  H   H58       1.0  0.2657657977945216  0.8487319126654617  0.5159303613614038  1.0000
  H   H59       1.0  0.3517941408379306  0.10321154525084096  0.4766440706517252  1.0000
  H   H60       1.0  0.6482058592601991  0.8967884546453155  0.5233559290426673  1.0000
  H   H61       1.0  0.5533554381923365  0.1951307390464282  0.34704145548965853  1.0000
  H   H62       1.0  0.44664456225357163  0.804869260927183  0.6529585449132231  1.0000
  H   H63       1.0  0.3938209524781586  0.1557550257273371  0.33712698840087113  1.0000
  H   H64       1.0  0.6061790467556112  0.8442449741697446  0.6628730112939312  1.0000
  H   H65       1.0  0.48796339303479797  0.0746519454028571  0.32189883883404824  1.0000
  H   H66       1.0  0.5120366070633317  0.9253480544932994  0.6781011608603441  1.0000
  H   H67       1.0  0.8016496791476174  0.3112305592786247  0.9148847747800348  1.0000
  H   H68       1.0  0.19835032008615228  0.688769440618457  0.08511522491476747  1.0000
  H   H69       1.0  0.7450343412540147  0.29809514605952964  0.7895142166428825  1.0000
  H   H70       1.0  0.25496565832753343  0.7019048539150068  0.21048578376040908  1.0000
  H   H71       1.0  0.9687866387622153  0.4344470144608603  0.9216593504887646  1.0000
  H   H72       1.0  0.031213361683692917  0.5655529855127509  0.07834064991411717  1.0000
  H   H73       1.0  0.9063015341050477  0.42860019658575826  0.7967923424538316  1.0000
  H   H74       1.0  0.09369846634086046  0.5713998033878529  0.20320765794905013  1.0000
  H   H75       1.0  0.4207681612919038  0.07677326328546398  0.7904094601668805  1.0000
  H   H76       1.0  0.5792318382896444  0.9232267366890724  0.20959054023641108  1.0000
  H   H77       1.0  0.651437203069096  0.1453301829831297  0.8790939684584996  1.0000
  H   H78       1.0  0.3485627970290339  0.8546698169130267  0.12090603123589287  1.0000
  H   H79       1.0  0.7290467975462493  0.18695232884826107  0.05351011645845353  1.0000
  H   H80       1.0  0.27095320268752404  0.8130476717473066  0.9464898832370657  1.0000
  H   H81       1.0  0.3508982143851607  0.08046033937996143  0.03984510670409174  1.0000
  H   H82       1.0  0.649101785712969  0.9195396605161951  0.9601548929903007  1.0000
  H   H83       1.0  0.5827000455460842  0.08886994431953793  0.1995429409820603  1.0000
  H   H84       1.0  0.41729995455204566  0.9111300555766185  0.8004570587123322  1.0000
  H   H85       1.0  0.5264583752300656  0.19561365099235642  0.1861922507584176  1.0000
  H   H86       1.0  0.47354162486806417  0.8043863489038  0.8138077489359747  1.0000
  H   H87       1.0  0.6860287688539803  0.1924450075710717  0.198962092996109  1.0000
  H   H88       1.0  0.3139712315919278  0.8075549924025394  0.8010379074067727  1.0000
  C   C1        1.0  0.19153986270612827  0.17561549031652085  0.13286371284815443  1.0000
  C   C2        1.0  0.8084601377397799  0.8243845096570902  0.8671362875547273  1.0000
  C   C3        1.0  0.09781920608135243  0.08687849224647175  0.12405170550154787  1.0000
  C   C4        1.0  0.9021807945001993  0.9131215084265506  0.8759482949024607  1.0000
  C   C5        1.0  0.9711321579141552  0.11894762217626509  0.10018210777351311  1.0000
  C   C6        1.0  0.028867841319614788  0.8810523777208168  0.8998178919212892  1.0000
  C   C7        1.0  0.9997819465776733  0.22475074057724734  0.09775368059318967  1.0000
  C   C8        1.0  0.00021805352045651727  0.7752492593189093  0.9022463191012028  1.0000
  C   C9        1.0  0.30572775481722925  0.5716024264336592  0.0017626543203482952  1.0000
  C   C10       1.0  0.694272245628679  0.42839757353995195  0.9982373460825334  1.0000
  C   C11       1.0  0.34918853509172937  0.6000209875672902  0.9313990509457678  1.0000
  C   C12       1.0  0.6508114653541789  0.39997901240632106  0.06860094945711392  1.0000
  C   C13       1.0  0.47916491951249607  0.6308703205857068  0.957084336347384  1.0000
  C   C14       1.0  0.5208350797212739  0.36912967931137486  0.04291566334741832  1.0000
  C   C15       1.0  0.5597805431229875  0.6325384300095396  0.050825742415263844  1.0000
  C   C16       1.0  0.4402194564585607  0.367461569964997  0.9491742579880277  1.0000
  C   C17       1.0  0.511920125218633  0.6035608566278264  0.11857686283737472  1.0000
  C   C18       1.0  0.48807987522727536  0.3964391433457846  0.8814231375655072  1.0000
  C   C19       1.0  0.25721069725011525  0.5955792328204399  0.832117727605102  1.0000
  C   C20       1.0  0.7427893019836546  0.4044207670766419  0.16788227208970027  1.0000
  C   C21       1.0  0.08746511035414249  0.1463122292831368  0.3658496906248647  1.0000
  C   C22       1.0  0.9125348888796273  0.8536877706139449  0.6341503090699375  1.0000
  C   C23       1.0  0.00701700689014608  0.05556006480086112  0.371417043608329  1.0000
  C   C24       1.0  0.9929829932079837  0.9444399350952956  0.6285829560860634  1.0000
  C   C25       1.0  0.8805817636007814  0.08177528109013477  0.3627942151069349  1.0000
  C   C26       1.0  0.11941823649734838  0.9182247188060216  0.6372057845874575  1.0000
  C   C27       1.0  0.9019045954244201  0.18825568052694225  0.366661112548501  1.0000
  C   C28       1.0  0.09809540380934964  0.8117443193701394  0.6333388871463013  1.0000
  C   C29       1.0  0.3150859759320947  0.5678309550901159  0.5072301417649239  1.0000
  C   C30       1.0  0.6849140246494569  0.4321690455829065  0.4927698586390847  1.0000
  C   C31       1.0  0.43321967196545624  0.6086092322136583  0.5730596145397548  1.0000
  C   C32       1.0  0.5667803281326735  0.39139076768249825  0.42694038515463767  1.0000
  C   C33       1.0  0.5299819400035032  0.6367389537207493  0.5395399704187186  1.0000
  C   C34       1.0  0.47001805923026657  0.3632610461763324  0.46046002927608376  1.0000
  C   C35       1.0  0.5061835803262784  0.6217287023150623  0.4428760112759415  1.0000
  C   C36       1.0  0.4938164201196298  0.3782712976585489  0.5571239891269403  1.0000
  C   C37       1.0  0.38701240941788034  0.5810582469982861  0.38005147499549374  1.0000
  C   C38       1.0  0.6129875906802493  0.41894175289787033  0.6199485246988987  1.0000
  C   C39       1.0  0.45252703233823655  0.6203297624314535  0.6759668044549482  1.0000
  C   C40       1.0  0.5474729672433117  0.379670237543083  0.32403319594834346  1.0000
  C   C41       1.0  0.016610507104409197  0.24023013955406225  0.6004070636355275  1.0000
  C   C42       1.0  0.9833894931293641  0.7597698610415053  0.39959293605999163  1.0000
  C   C43       1.0  0.9531274169814492  0.3249444718627705  0.5961895991676738  1.0000
  C   C44       1.0  0.046872583116680536  0.6750555280333859  0.4038104005267187  1.0000
  C   C45       1.0  0.05953538564262904  0.4101288486501564  0.6221122204638413  1.0000
  C   C46       1.0  0.9404646135911409  0.5898711512469255  0.377887779230961  1.0000
  C   C47       1.0  0.1781078521427654  0.3694309684877438  0.6399722034683687  1.0000
  C   C48       1.0  0.8218921474387827  0.6305690314867926  0.36002779693492276  1.0000
  C   C49       1.0  0.6197195732658595  0.10184109698191289  0.6563835373580089  1.0000
  C   C50       1.0  0.38028042645133214  0.8981589036920347  0.34361646304640947  1.0000
  C   C51       1.0  0.7064956232586428  0.12158510592553555  0.6133083273270394  1.0000
  C   C52       1.0  0.2935043763229053  0.8784148940490009  0.3866916730762522  1.0000
  C   C53       1.0  0.6660215509574374  0.13559862891268018  0.5179326803165412  1.0000
  C   C54       1.0  0.33397844827633233  0.8644013709844015  0.4820673193782611  1.0000
  C   C55       1.0  0.5371899018833369  0.12924313523888092  0.465796304565794  1.0000
  C   C56       1.0  0.4628100973504329  0.8707568646582008  0.5342036951290082  1.0000
  C   C57       1.0  0.45320746539734097  0.10899522200838789  0.5116727575566928  1.0000
  C   C58       1.0  0.5467925350485672  0.8910047779652233  0.48832724284618895  1.0000
  C   C59       1.0  0.4892300651321082  0.14012842735106498  0.36241860302082857  1.0000
  C   C60       1.0  0.5107699349660216  0.8598715725450915  0.6375813966735638  1.0000
  C   C61       1.0  0.8868613600658418  0.21746015851338446  0.8563905760422118  1.0000
  C   C62       1.0  0.11313863916792798  0.7825398413836973  0.1436094236525905  1.0000
  C   C63       1.0  0.8301779568573595  0.30552965663786047  0.8537275360349927  1.0000
  C   C64       1.0  0.16982204324077024  0.694470343258296  0.14627246365939978  1.0000
  C   C65       1.0  0.9340046169261992  0.38598913329544887  0.8561321292730598  1.0000
  C   C66       1.0  0.06599538265534914  0.6140108666790877  0.1438678711302317  1.0000
  C   C67       1.0  0.04110742004459443  0.3385848073272606  0.8535053534716305  1.0000
  C   C68       1.0  0.9588925804013139  0.6614151926463506  0.1464946469312513  1.0000
  C   C69       1.0  0.46204076601429406  0.09412495675694016  0.8667992118605072  1.0000
  C   C70       1.0  0.5379592344316142  0.905875043216671  0.1332007885423745  1.0000
  C   C71       1.0  0.5871216301158069  0.13325020496050807  0.9167962966889407  1.0000
  C   C72       1.0  0.41287836998232297  0.8667497949356484  0.08320370300545181  1.0000
  C   C73       1.0  0.6307781673444894  0.15458953206686601  0.014776692100835064  1.0000
  C   C74       1.0  0.3692218318892805  0.8454104678302158  0.9852233075939673  1.0000
  C   C75       1.0  0.5474324460588312  0.1355984430458148  0.06223624453438473  1.0000
  C   C76       1.0  0.4525675540392987  0.8644015568503417  0.9377637551600078  1.0000
  C   C77       1.0  0.4225460256956843  0.09588890169752552  0.00918935746049204  1.0000
  C   C78       1.0  0.5774539735380856  0.9041110981995563  0.9908106422343103  1.0000
  C   C79       1.0  0.5885753853523366  0.15498978870624577  0.16735152314228152  1.0000
  C   C80       1.0  0.4114246150935716  0.8450102112673654  0.8326484772606002  1.0000
  N   N1        1.0  0.12759058161324444  0.2508665597638581  0.11697680137269655  1.0000
  N   N2        1.0  0.8724094184848855  0.7491334401322984  0.8830231983216958  1.0000
  N   N3        1.0  0.38603726311355596  0.5739064506828857  0.09272638686892692  1.0000
  N   N4        1.0  0.6139627369845738  0.4260935492132708  0.9072736128254655  1.0000
  N   N5        1.0  0.02160984694599736  0.21911366818406897  0.3658835759007812  1.0000
  N   N6        1.0  0.978390152635551  0.7808863317904674  0.6341164245025105  1.0000
  N   N7        1.0  0.2933477180810874  0.5561430556118319  0.4132109428799167  1.0000
  N   N8        1.0  0.7066522821526858  0.4438569449837359  0.5867890568156026  1.0000
  N   N9        1.0  0.14472110782996486  0.27228594952867374  0.6248414944922681  1.0000
  N   N10       1.0  0.8552788926159431  0.7277140504449372  0.37515850591061356  1.0000
  N   N11       1.0  0.49519001424709763  0.09499945558342071  0.6047407744025457  1.0000
  N   N12       1.0  0.5048099849866722  0.9050005443136611  0.39525922529225654  1.0000
  N   N13       1.0  0.007149447082607458  0.24240821488409595  0.856252795577414  1.0000
  N   N14       1.0  0.9928505530155224  0.7575917850120604  0.1437472041169784  1.0000
  N   N15       1.0  0.3827700506631239  0.07526123524764602  0.9139480092690648  1.0000
  N   N16       1.0  0.6172299494350059  0.9247387646485105  0.08605199042532752  1.0000
  O   O1        1.0  0.30500399353903396  0.18213917116173228  0.15069492199519152  1.0000
  O   O2        1.0  0.6949960056947359  0.8178608287353496  0.8493050776996108  1.0000
  O   O3        1.0  0.9239661789225235  0.27884062593837095  0.08050027332976101  1.0000
  O   O4        1.0  0.07603382031124628  0.7211593739587108  0.9194997263650413  1.0000
  O   O5        1.0  0.34094854715313305  0.5477821630412297  0.15897801697536118  1.0000
  O   O6        1.0  0.6590514520806368  0.45221783685585215  0.8410219827194411  1.0000
  O   O7        1.0  0.19331580750304475  0.1564219228671067  0.3623059491024401  1.0000
  O   O8        1.0  0.8066841925950851  0.8435780770290497  0.6376940505919524  1.0000
  O   O9        1.0  0.8279463821013141  0.24023656943670357  0.36917484630484915  1.0000
  O   O10       1.0  0.17205361834459398  0.7597634305369074  0.6308251540980325  1.0000
  O   O11       1.0  0.17757618505421463  0.5216149029851999  0.35118049890963066  1.0000
  O   O12       1.0  0.8224238153916934  0.47838509698841125  0.648819501493251  1.0000
  O   O13       1.0  0.28641280163994914  0.41354385024264845  0.6636377405386285  1.0000
  O   O14       1.0  0.7135871984581805  0.5864561496535081  0.33636225915576407  1.0000
  O   O15       1.0  0.9661935578934981  0.15685321222820708  0.5841934819837344  1.0000
  O   O16       1.0  0.033806441340271734  0.8431467876688747  0.4158065177110678  1.0000
  O   O17       1.0  0.41290403150455685  0.0709210422294723  0.6465961458833824  1.0000
  O   O18       1.0  0.587095968593573  0.9290789576666841  0.35340385381101  1.0000
  O   O19       1.0  0.14132328239189537  0.3763424858029244  0.8492691163311007  1.0000
  O   O20       1.0  0.8586767177062343  0.623657514093232  0.15073088336329174  1.0000
  O   O21       1.0  0.8359820615032093  0.13641011161644906  0.8578114821234122  1.0000
  O   O22       1.0  0.16401793859492061  0.8635898882797074  0.14218851757098033  1.0000
  O   O23       1.0  0.26325875972699475  0.03426852667175663  0.8648989593653547  1.0000
  O   O24       1.0  0.7367412398545533  0.9657314733027798  0.13510104103793694  1.0000
  I   I1        1.0  0.22157358614036413  0.39162921485022956  0.1299553458425349  1.0000
  I   I2        1.0  0.7784264139577657  0.6083707850459269  0.8700446538518576  1.0000
  I   I3        1.0  0.09561640698653064  0.3622914207937023  0.3617603952219941  1.0000
  I   I4        1.0  0.9043835922472392  0.6377085791033795  0.6382396044728081  1.0000
  I   I5        1.0  0.27127325752358045  0.17861038265512427  0.6345861500227613  1.0000
  I   I6        1.0  0.7287267417101893  0.8213896172419576  0.36541384967204094  1.0000
  I   I7        1.0  0.12741040176246426  0.14340101474575237  0.8598156635437899  1.0000
  I   I8        1.0  0.8725895983356654  0.8565989851504041  0.14018433615060258  1.0000
