data_image0
_chemical_formula_structural       H22C6N12O6P2S4
_chemical_formula_sum              "H22 C6 N12 O6 P2 S4"
_cell_length_a       4.898665412761301
_cell_length_b       9.844174918085526
_cell_length_c       11.828071073267807
_cell_angle_alpha    70.45056232178405
_cell_angle_beta     86.40338715576009
_cell_angle_gamma    80.86233068335804

_space_group_name_H-M_alt    "P 1"
_space_group_IT_number       1

loop_
  _space_group_symop_operation_xyz
  'x, y, z'

loop_
  _atom_site_type_symbol
  _atom_site_label
  _atom_site_symmetry_multiplicity
  _atom_site_fract_x
  _atom_site_fract_y
  _atom_site_fract_z
  _atom_site_occupancy
  H   H1        1.0  0.7894177239051027  0.7741733135845319  0.2305497716363229  1.0000
  H   H2        1.0  0.21058227694241843  0.22582668648057744  0.7694502287472847  1.0000
  H   H3        1.0  0.45539722114508996  0.4161360033550524  0.23697488467321237  1.0000
  H   H4        1.0  0.5446027776598968  0.583863996717882  0.7630251157022669  1.0000
  H   H5        1.0  0.08594105679680245  0.623026319065897  0.4665909533209394  1.0000
  H   H6        1.0  0.9140589440507185  0.3769736809992125  0.5334090470626681  1.0000
  H   H7        1.0  0.04185674387569713  0.2549091825649582  0.36762941732720017  1.0000
  H   H8        1.0  0.9581432570138405  0.7450908178520569  0.6323705821592526  1.0000
  H   H9        1.0  0.09533426649510456  0.07584266006299555  0.37645338419584573  1.0000
  H   H10       1.0  0.9046657323098823  0.9241573400099389  0.6235466161796336  1.0000
  H   H11       1.0  0.8302931748679234  0.1932419430752652  0.2921325192917028  1.0000
  H   H12       1.0  0.16970682602161402  0.8067580573417497  0.7078674801947499  1.0000
  H   H13       1.0  0.17322081895824432  0.20521750982925832  0.2522189027387013  1.0000
  H   H14       1.0  0.8267791822082721  0.7947824892045311  0.7477810976510758  1.0000
  H   H15       1.0  0.904437120563695  0.34451551506571204  0.9634850792356926  1.0000
  H   H16       1.0  0.09556287828330824  0.6554844853591276  0.03651492024263203  1.0000
  H   H17       1.0  0.8233199040915596  0.4227915695562276  0.07738913791750332  1.0000
  H   H18       1.0  0.17668009471342705  0.5772084305167069  0.922610862457976  1.0000
  H   H19       1.0  0.6553091644274646  0.14523438154839077  0.9706611244762061  1.0000
  H   H20       1.0  0.3446908343775222  0.8547656185245437  0.02933887589927323  1.0000
  H   H21       1.0  0.4211287751797352  0.08878290058292891  0.09088123711857245  1.0000
  H   H22       1.0  0.5788712256677859  0.9112170994821807  0.9091187632650352  1.0000
  C   C1        1.0  0.6443871610002869  0.5931817918089571  0.22522734386790566  1.0000
  C   C2        1.0  0.35561284016622957  0.40681820722483203  0.7747726565218715  1.0000
  C   C3        1.0  0.24806024591727374  0.511539072073796  0.356322019778256  1.0000
  C   C4        1.0  0.7519397549722637  0.488460928343219  0.6436779797081967  1.0000
  C   C5        1.0  0.6099462791859444  0.25726035483484605  0.09316128402912725  1.0000
  C   C6        1.0  0.3900537196610589  0.7427396455899937  0.9068387154491974  1.0000
  N   N1        1.0  0.6332997910828856  0.7103292801401284  0.2630299938099264  1.0000
  N   N2        1.0  0.3667002100836309  0.28967071889366086  0.7369700065798508  1.0000
  N   N3        1.0  0.4399411277662375  0.5055181949065116  0.26717555151500266  1.0000
  N   N4        1.0  0.5600588710387492  0.49448180516642276  0.7328244488604766  1.0000
  N   N5        1.0  0.2205607445771138  0.6292510812141735  0.39379913406440353  1.0000
  N   N6        1.0  0.7794392562704073  0.37074891885093614  0.606200866319204  1.0000
  N   N7        1.0  0.028782327285675407  0.18180273141472  0.3225283772988759  1.0000
  N   N8        1.0  0.9712176735618459  0.8181972686503897  0.6774716230847315  1.0000
  N   N9        1.0  0.7981687911129401  0.34519718211329353  0.0404642907852692  1.0000
  N   N10       1.0  0.20183120773406327  0.654802818311546  0.9595357086930554  1.0000
  N   N11       1.0  0.5477901680288113  0.16179704153752822  0.04331242487267516  1.0000
  N   N12       1.0  0.4522098328607263  0.8382029588794867  0.9566875746137776  1.0000
  O   O1        1.0  0.8303808702617641  0.5617228815523952  0.15732762673777745  1.0000
  O   O2        1.0  0.16961912854322264  0.4382771185205391  0.8426723736377019  1.0000
  O   O3        1.0  0.10718634321254598  0.41046391771849977  0.40146927507550156  1.0000
  O   O4        1.0  0.8928136576769917  0.5895360826985151  0.598530724410951  1.0000
  O   O5        1.0  0.4928518245893848  0.263582796187124  0.19194876320097928  1.0000
  O   O6        1.0  0.5071481745345973  0.73641720285449  0.8080512371806697  1.0000
  P   P1        1.0  0.3484444260621986  0.7881618558840735  0.32271873300836346  1.0000
  P   P2        1.0  0.6515555748273388  0.21183814453294147  0.6772812664780893  1.0000
  S   S1        1.0  0.4428792892738099  0.8720075995082919  0.4406418150183674  1.0000
  S   S2        1.0  0.5571207115737112  0.12799240055681768  0.5593581853652402  1.0000
  S   S3        1.0  0.10510610644663504  0.9181404042842626  0.1868623561235835  1.0000
  S   S4        1.0  0.8948938944008861  0.081859595780847  0.813137644260024  1.0000
