data_image0
_chemical_formula_structural       H60C76O12P4
_chemical_formula_sum              "H60 C76 O12 P4"
_cell_length_a       9.089975978180432
_cell_length_b       9.793113331025449
_cell_length_c       17.754396214098872
_cell_angle_alpha    90.0
_cell_angle_beta     78.3433977940651
_cell_angle_gamma    90.0

_space_group_name_H-M_alt    "P 1"
_space_group_IT_number       1

loop_
  _space_group_symop_operation_xyz
  'x, y, z'

loop_
  _atom_site_type_symbol
  _atom_site_label
  _atom_site_symmetry_multiplicity
  _atom_site_fract_x
  _atom_site_fract_y
  _atom_site_fract_z
  _atom_site_occupancy
  H   H1        1.0  0.21772699637389156  0.9976231388079922  0.7638633242066956  1.0000
  H   H2        1.0  0.7822730036055985  0.49762313834978494  0.7361366758181241  1.0000
  H   H3        1.0  0.7822730034047084  0.0023768610872966028  0.2361366761899559  1.0000
  H   H4        1.0  0.2177269964315765  0.5023768615455039  0.26386332400366463  1.0000
  H   H5        1.0  0.07097233996920525  0.8188088556675932  0.8443968433228131  1.0000
  H   H6        1.0  0.9290276600102849  0.31880885520938596  0.6556031567020068  1.0000
  H   H7        1.0  0.9290276600679697  0.18119114422769556  0.1556031564989758  1.0000
  H   H8        1.0  0.0709723400268902  0.6811911446859028  0.34439684311978214  1.0000
  H   H9        1.0  0.08427819405619255  0.7972703752201385  0.9827437440007705  1.0000
  H   H10       1.0  0.9157218059232975  0.29727037476193124  0.5172562560240493  1.0000
  H   H11       1.0  0.9157218059809823  0.2027296246751503  0.017256255821018418  1.0000
  H   H12       1.0  0.08427819385530237  0.7027296251333576  0.48274374437260203  1.0000
  H   H13       1.0  0.25955115629955594  0.9449934017082348  0.03728778706902001  1.0000
  H   H14       1.0  0.7404488437953038  0.44499340227115314  0.46271221254973793  1.0000
  H   H15       1.0  0.7404488437376191  0.055006598187054126  0.9627122127527687  1.0000
  H   H16       1.0  0.25955115624187103  0.5550065986452614  0.537287787272051  1.0000
  H   H17       1.0  0.41203470063202036  0.11946860415608926  0.9561978363229997  1.0000
  H   H18       1.0  0.5879652993474697  0.6194686046142965  0.5438021637018199  1.0000
  H   H19       1.0  0.5879652991465796  0.8805313957391996  0.04380216407365156  1.0000
  H   H20       1.0  0.41203470068970527  0.3805313952809923  0.4561978361199689  1.0000
  H   H21       1.0  0.6501241433844404  0.14704005164915396  0.6644431132531543  1.0000
  H   H22       1.0  0.34987585659504983  0.6470400521073613  0.8355568867716655  1.0000
  H   H23       1.0  0.3498758563941597  0.852959948246135  0.3355568871434971  1.0000
  H   H24       1.0  0.6501241434421252  0.3529599477879276  0.16444311305012338  1.0000
  H   H25       1.0  0.6347280613713344  0.12182222952739766  0.5275220287890731  1.0000
  H   H26       1.0  0.36527193860815566  0.621822229985605  0.9724779712357465  1.0000
  H   H27       1.0  0.3652719384072654  0.8781777703678912  0.4724779716075784  1.0000
  H   H28       1.0  0.6347280614290193  0.3781777699096839  0.027522028586042163  1.0000
  H   H29       1.0  0.38977823757507024  0.15039714033879925  0.4871931930164535  1.0000
  H   H30       1.0  0.6102217622612146  0.6503971407970065  0.012806807177166889  1.0000
  H   H31       1.0  0.6102217622035296  0.8496028595564896  0.5128068073801978  1.0000
  H   H32       1.0  0.3897782377759603  0.3496028590982823  0.9871931926446219  1.0000
  H   H33       1.0  0.16454583732317477  0.2232105711546084  0.5829799116378572  1.0000
  H   H34       1.0  0.8354541626563153  0.7232105716128157  0.9170200883869625  1.0000
  H   H35       1.0  0.8354541624554249  0.7767894287406805  0.41702008875879415  1.0000
  H   H36       1.0  0.16454583738085976  0.27678942930359884  0.08297991143482632  1.0000
  H   H37       1.0  0.17955034552683738  0.25203071654247416  0.7201316876868983  1.0000
  H   H38       1.0  0.8204496544526527  0.7520307170006815  0.7798683123379214  1.0000
  H   H39       1.0  0.8204496542517625  0.7479692833528147  0.27986831270975304  1.0000
  H   H40       1.0  0.17955034558452238  0.24796928391573309  0.22013168748386738  1.0000
  H   H41       1.0  0.6538053814405582  0.00428008730045106  0.7741180924760409  1.0000
  H   H42       1.0  0.34619461853893185  0.5042800867375326  0.7258819075487788  1.0000
  H   H43       1.0  0.3461946185966168  0.9957199125948377  0.2258819073457479  1.0000
  H   H44       1.0  0.6538053812396681  0.4957199131577562  0.2741180928478726  1.0000
  H   H45       1.0  0.9146228609287027  0.006048222664017497  0.7956460293422223  1.0000
  H   H46       1.0  0.08537713905078738  0.5060482231222247  0.7043539706825975  1.0000
  H   H47       1.0  0.08537713910847239  0.9939517772312714  0.20435397047956655  1.0000
  H   H48       1.0  0.9146228609863875  0.49395177677306407  0.29564602913919136  1.0000
  H   H49       1.0  0.01524532027284328  0.2092432927849546  0.8513288641114184  1.0000
  H   H50       1.0  0.9847546797066468  0.7092432922220362  0.6486711359134013  1.0000
  H   H51       1.0  0.9847546795057566  0.7907567071103342  0.14867113628523296  1.0000
  H   H52       1.0  0.015245320330528217  0.2907567076732527  0.3513288639083875  1.0000
  H   H53       1.0  0.8508481417967554  0.4161691580846068  0.8853259615320631  1.0000
  H   H54       1.0  0.14915185818273458  0.9161691585428141  0.6146740384927565  1.0000
  H   H55       1.0  0.14915185824041952  0.5838308418106821  0.11467403828972564  1.0000
  H   H56       1.0  0.8508481415958654  0.08383084135247476  0.3853259619038948  1.0000
  H   H57       1.0  0.5903500192502794  0.4147829829693864  0.8633780835465231  1.0000
  H   H58       1.0  0.4096499809877857  0.914782982406468  0.636621915903434  1.0000
  H   H59       1.0  0.4096499807868956  0.5852170179470281  0.13662191627526565  1.0000
  H   H60       1.0  0.5903500190493894  0.08521701748882084  0.3633780839183548  1.0000
  C   C1        1.0  0.32156065179413357  0.0733751245095371  0.854930249577243  1.0000
  C   C2        1.0  0.6784393481853565  0.5733751249677445  0.6450697504475768  1.0000
  C   C3        1.0  0.6784393479844663  0.9266248753857518  0.1450697508194084  1.0000
  C   C4        1.0  0.3215606518518185  0.4266248759486702  0.35493024937421214  1.0000
  C   C5        1.0  0.22605442254298627  0.9873400310162176  0.8238878842390417  1.0000
  C   C6        1.0  0.7739455776950789  0.487340031579136  0.6761121152109154  1.0000
  C   C7        1.0  0.7739455774941888  0.012659968879071254  0.1761121155827471  1.0000
  C   C8        1.0  0.2260544223420961  0.5126599683161528  0.32388788461087337  1.0000
  C   C9        1.0  0.14253306875878283  0.8871292311584323  0.8695948809237753  1.0000
  C   C10       1.0  0.8574669312207073  0.3871292317213508  0.6304051191010444  1.0000
  C   C11       1.0  0.8574669312783921  0.11287076873685652  0.13040511889801346  1.0000
  C   C12       1.0  0.14253306881646774  0.6128707691950638  0.3695948807207445  1.0000
  C   C13       1.0  0.1521303891208403  0.873459644636249  0.9466968063808748  1.0000
  C   C14       1.0  0.8478696111172249  0.3734596441780416  0.5533031930690823  1.0000
  C   C15       1.0  0.8478696109163348  0.12654035525903992  0.05330319344091395  1.0000
  C   C16       1.0  0.1521303889199501  0.6265403557172472  0.4466968067527065  1.0000
  C   C17       1.0  0.2499660323501734  0.9568963375836632  0.9774931366752379  1.0000
  C   C18       1.0  0.7500339676293166  0.4568963371254559  0.5225068633495817  1.0000
  C   C19       1.0  0.7500339674284265  0.043103662311625615  0.022506863721413445  1.0000
  C   C20       1.0  0.24996603240785828  0.5431036627698329  0.477493136472207  1.0000
  C   C21       1.0  0.33518472928704746  0.055570481174347375  0.9318316537086822  1.0000
  C   C22       1.0  0.6648152709510176  0.5555704816325546  0.568168345741275  1.0000
  C   C23       1.0  0.6648152707501275  0.9444295187209414  0.06816834611310664  1.0000
  C   C24       1.0  0.3351847290861574  0.44442951826273414  0.4318316540805138  1.0000
  C   C25       1.0  0.4149392934255757  0.19622862056665055  0.7019801045021369  1.0000
  C   C26       1.0  0.5850607065539144  0.6962286200037321  0.7980198955226828  1.0000
  C   C27       1.0  0.5850607063530242  0.8037713793286383  0.29801989589451455  1.0000
  C   C28       1.0  0.4149392934832607  0.3037713798915567  0.2019801042991059  1.0000
  C   C29       1.0  0.5432857861410181  0.16227189620745444  0.6472272572937684  1.0000
  C   C30       1.0  0.4567142138384719  0.6622718966656617  0.8527727427310514  1.0000
  C   C31       1.0  0.45671421389615685  0.8377281036878343  0.35277274252802043  1.0000
  C   C32       1.0  0.543285785940128  0.3377281032296271  0.14722725766559996  1.0000
  C   C33       1.0  0.5342104567160462  0.14734986936466918  0.5700805207976434  1.0000
  C   C34       1.0  0.46578954326344396  0.6473498698228765  0.9299194792271762  1.0000
  C   C35       1.0  0.4657895433211288  0.8526501305306197  0.42991947902414535  1.0000
  C   C36       1.0  0.5342104567737311  0.35265013007241236  0.0700805205946125  1.0000
  C   C37       1.0  0.39754323818122855  0.16552464831225056  0.54712175354565  1.0000
  C   C38       1.0  0.6024567617982615  0.6655246477493322  0.9528782464791699  1.0000
  C   C39       1.0  0.6024567615973713  0.8344753515830382  0.4528782468510015  1.0000
  C   C40       1.0  0.3975432382389136  0.3344753521459567  0.04712175334261901  1.0000
  C   C41       1.0  0.27013113403683153  0.20454611442653944  0.601203461108521  1.0000
  C   C42       1.0  0.7298688659426584  0.7045461148847466  0.8987965389162988  1.0000
  C   C43       1.0  0.7298688657417683  0.7954538854687494  0.3987965392881304  1.0000
  C   C44       1.0  0.2701311340945165  0.29545388501054215  0.10120346090549004  1.0000
  C   C45       1.0  0.278654987934604  0.22025160917586803  0.6781605709958011  1.0000
  C   C46       1.0  0.721345012044886  0.7202516086129496  0.8218394290290186  1.0000
  C   C47       1.0  0.721345012102571  0.7797483907194208  0.3218394288259878  1.0000
  C   C48       1.0  0.27865498799228905  0.2797483912823393  0.17816057079277012  1.0000
  C   C49       1.0  0.6062011355170788  0.21065877012412562  0.8173600231256364  1.0000
  C   C50       1.0  0.39379886446241125  0.7106587705823328  0.6826399768991833  1.0000
  C   C51       1.0  0.39379886561320876  0.7893412297711632  0.1826399767127324  1.0000
  C   C52       1.0  0.6062011355747637  0.28934123033408166  0.31736002292260546  1.0000
  C   C53       1.0  0.6964787317946339  0.09444098610295114  0.7989000817358933  1.0000
  C   C54       1.0  0.3035212681848561  0.5944409865611585  0.7010999182889263  1.0000
  C   C55       1.0  0.30352126798396595  0.9055590137923376  0.20109991866075796  1.0000
  C   C56       1.0  0.6964787318523189  0.40555901333413036  0.29890008153286246  1.0000
  C   C57       1.0  0.8437114818743628  0.09560416063335425  0.810666210658346  1.0000
  C   C58       1.0  0.1562885181051272  0.5956041610915616  0.6893337893664738  1.0000
  C   C59       1.0  0.15628851816281217  0.9043958392619346  0.18933378916344287  1.0000
  C   C60       1.0  0.8437114819320479  0.40439583982485305  0.310666210455315  1.0000
  C   C61       1.0  0.900535198971379  0.210676228310733  0.8416353023138188  1.0000
  C   C62       1.0  0.09946480100811089  0.7106762287689402  0.6583646977110009  1.0000
  C   C63       1.0  0.09946480080722077  0.7893237715845558  0.15836469808283252  1.0000
  C   C64       1.0  0.9005351990290641  0.2893237711263486  0.34163530211078796  1.0000
  C   C65       1.0  0.8091866803548804  0.32519619679174366  0.8612974187343917  1.0000
  C   C66       1.0  0.19081331962460954  0.825196197249951  0.6387025812904279  1.0000
  C   C67       1.0  0.1908133194237194  0.6748038031035453  0.13870258166225963  1.0000
  C   C68       1.0  0.8091866804125654  0.17480380264533787  0.3612974185313608  1.0000
  C   C69       1.0  0.6623974620676432  0.3255966782185822  0.8490593038871314  1.0000
  C   C70       1.0  0.33760253791184697  0.8255966786767894  0.6509406961376882  1.0000
  C   C71       1.0  0.337602537969532  0.6744033216767067  0.15094069593465734  1.0000
  C   C72       1.0  0.6623974618667529  0.1744033212184994  0.34905930425896314  1.0000
  C   C73       1.0  0.10669389022104445  0.4634737581990927  0.9163180948776972  1.0000
  C   C74       1.0  0.8933061097584457  0.9634737576361744  0.5836819051471225  1.0000
  C   C75       1.0  0.8933061095575554  0.5365262416961961  0.0836819055189541  1.0000
  C   C76       1.0  0.10669389027872933  0.03652624225911457  0.41631809467466635  1.0000
  O   O1        1.0  0.3400774155814703  0.3521251121515321  0.8319363997543827  1.0000
  O   O2        1.0  0.6599225843980199  0.8521251115886137  0.6680636002704369  1.0000
  O   O3        1.0  0.6599225844557048  0.6478748877437568  0.16806360006740603  1.0000
  O   O4        1.0  0.3400774153805801  0.1478748883066752  0.3319364001262144  1.0000
  O   O5        1.0  0.10281415322151496  0.38086670131585626  0.964785290758903  1.0000
  O   O6        1.0  0.8971858467579749  0.8808667017740637  0.5352147092659167  1.0000
  O   O7        1.0  0.897185846557085  0.6191332985794326  0.035214709637748316  1.0000
  O   O8        1.0  0.10281415327919992  0.11913329812122524  0.46478529055587214  1.0000
  O   O9        1.0  0.10085308116291142  0.5497583064768078  0.8710735183771942  1.0000
  O   O10       1.0  0.8991469188165787  0.049758306018600464  0.6289264816476255  1.0000
  O   O11       1.0  0.8991469188742635  0.45024169341848114  0.12892648144459468  1.0000
  O   O12       1.0  0.10085308096202131  0.9502416938766883  0.3710735187490258  1.0000
  P   P1        1.0  0.4147576960024669  0.21938394843175305  0.8032205070917727  1.0000
  P   P2        1.0  0.585242303977023  0.7193839488899604  0.696779492933047  1.0000
  P   P3        1.0  0.5852423037761331  0.7806160514635359  0.19677949330487862  1.0000
  P   P4        1.0  0.4147576960601518  0.28061605100532855  0.30322050688874186  1.0000
