data_image0
_chemical_formula_structural       H128C56P8I32
_chemical_formula_sum              "H128 C56 P8 I32"
_cell_length_a       9.369645945754806
_cell_length_b       11.02400931953033
_cell_length_c       30.15663175229979
_cell_angle_alpha    90.0
_cell_angle_beta     90.0
_cell_angle_gamma    90.0

_space_group_name_H-M_alt    "P 1"
_space_group_IT_number       1

loop_
  _space_group_symop_operation_xyz
  'x, y, z'

loop_
  _atom_site_type_symbol
  _atom_site_label
  _atom_site_symmetry_multiplicity
  _atom_site_fract_x
  _atom_site_fract_y
  _atom_site_fract_z
  _atom_site_occupancy
  H   H1        1.0  0.4933648322212676  0.4265001292833009  0.13495017856858776  1.0000
  H   H2        1.0  0.006635167471634035  0.5734998707593033  0.6349501783646561  1.0000
  H   H3        1.0  0.5066351682318118  0.926500129304603  0.3650498215590825  1.0000
  H   H4        1.0  0.993364831914169  0.07349987073800121  0.8650498216867527  1.0000
  H   H5        1.0  0.30595178266034956  0.2854023920703692  0.1593262254705744  1.0000
  H   H6        1.0  0.19404821703255204  0.7145976079722349  0.6593262252666426  1.0000
  H   H7        1.0  0.6940482177927298  0.7854023920916713  0.3406737746570958  1.0000
  H   H8        1.0  0.8059517823532512  0.21459760795093283  0.8406737747847661  1.0000
  H   H9        1.0  0.16843564624926322  0.3943445795440611  0.14866406854797715  1.0000
  H   H10       1.0  0.3315643534436384  0.605655420498543  0.6486640686756474  1.0000
  H   H11       1.0  0.8315643542038161  0.8943445795653633  0.3513359312480911  1.0000
  H   H12       1.0  0.6684356459421649  0.10565542047724094  0.8513359313757614  1.0000
  H   H13       1.0  0.29426916192593483  0.4173581694863825  0.19210947421401559  1.0000
  H   H14       1.0  0.20573083883424295  0.5826418305562217  0.6921094743416858  1.0000
  H   H15       1.0  0.7057308385271446  0.9173581695076846  0.3078905259136547  1.0000
  H   H16       1.0  0.7942691616188364  0.0826418305349196  0.8078905257097229  1.0000
  H   H17       1.0  0.43238481405325213  0.6445396583085182  0.11362264188336257  1.0000
  H   H18       1.0  0.06761518563964944  0.35546034173408597  0.6136226420110328  1.0000
  H   H19       1.0  0.5676151853325511  0.14453965828721613  0.3863773582443077  1.0000
  H   H20       1.0  0.9323848137461538  0.855460340848277  0.886377358040376  1.0000
  H   H21       1.0  0.39942156957335423  0.610502836574773  0.1703698278441917  1.0000
  H   H22       1.0  0.10057843011954735  0.3894971634678312  0.6703698276402599  1.0000
  H   H23       1.0  0.6005784308797251  0.1105028365534709  0.3296301722834786  1.0000
  H   H24       1.0  0.8994215692662557  0.8894971634891333  0.8296301724111489  1.0000
  H   H25       1.0  0.25473434896239555  0.6187604248406615  0.13188521658081698  1.0000
  H   H26       1.0  0.24526565073050602  0.38123957520194257  0.6318852167084873  1.0000
  H   H27       1.0  0.7452656504234075  0.11876042481935946  0.3681147835468533  1.0000
  H   H28       1.0  0.7547343497225734  0.8812395752232447  0.8681147833429215  1.0000
  H   H29       1.0  0.2136095954518766  0.1983082367435026  0.10619532202086107  1.0000
  H   H30       1.0  0.28639040424102497  0.8016917632991015  0.6061953221485312  1.0000
  H   H31       1.0  0.7863904050012027  0.6983082367648047  0.39380467777520717  1.0000
  H   H32       1.0  0.7136095951447782  0.3016917632777995  0.8938046779028774  1.0000
  H   H33       1.0  0.21871594314921702  0.10630836803845607  0.05796424562125358  1.0000
  H   H34       1.0  0.28128405654368455  0.8936916320041481  0.5579642454173218  1.0000
  H   H35       1.0  0.7812840562365861  0.6063083680597582  0.44203575450641663  1.0000
  H   H36       1.0  0.7187159428421186  0.393691631982846  0.942035754634087  1.0000
  H   H37       1.0  0.12381055129682886  0.245769063819644  0.05727029079990972  1.0000
  H   H38       1.0  0.3761894483960727  0.7542309362229601  0.5572702905959779  1.0000
  H   H39       1.0  0.8761894480889744  0.7457690638409461  0.4427297093277605  1.0000
  H   H40       1.0  0.6238105520570066  0.2542309362016581  0.9427297094554308  1.0000
  H   H41       1.0  0.45494200471164187  0.296074087511662  0.9878512873947916  1.0000
  H   H42       1.0  0.045057996048535845  0.7039259125309422  0.4878512872671214  1.0000
  H   H43       1.0  0.5450579957414374  0.7960740875329639  0.5121487126566171  1.0000
  H   H44       1.0  0.9549420044045435  0.20392591250964015  0.012148712860548841  1.0000
  H   H45       1.0  0.2649657537086373  0.29514954366335955  0.9870381233053329  1.0000
  H   H46       1.0  0.23503424705154052  0.7048504563792447  0.4870381231776627  1.0000
  H   H47       1.0  0.7350342467444421  0.7951495436846616  0.5129618767460757  1.0000
  H   H48       1.0  0.7649657534015388  0.20485045635794255  0.012961876618405515  1.0000
  H   H49       1.0  0.36042750596462875  0.15653184063831307  0.9921657121975576  1.0000
  H   H50       1.0  0.13957249372827285  0.8434681594042911  0.4921657124014893  1.0000
  H   H51       1.0  0.6395724944884505  0.6565318406596151  0.5078342878538512  1.0000
  H   H52       1.0  0.8604275056575302  0.343468159382989  0.007834287726180918  1.0000
  H   H53       1.0  0.48988368360702583  0.20269550716374027  0.10899585228875346  1.0000
  H   H54       1.0  0.010116316085875765  0.7973044928788638  0.6089958520848217  1.0000
  H   H55       1.0  0.5101163168460535  0.7026955071850424  0.3910041478389168  1.0000
  H   H56       1.0  0.9898836832999275  0.2973044928575618  0.891004147634985  1.0000
  H   H57       1.0  0.5886369198933155  0.2398539155183381  0.060478549294912955  1.0000
  H   H58       1.0  0.9113630802526655  0.760146084524266  0.5604785490909812  1.0000
  H   H59       1.0  0.41136308055976395  0.7398539155396402  0.4395214508327573  1.0000
  H   H60       1.0  0.08863691913313766  0.260146084502964  0.9395214506288255  1.0000
  H   H61       1.0  0.48749805344240604  0.1030202267688563  0.06263682613877952  1.0000
  H   H62       1.0  0.012501946250495536  0.8969797732737478  0.5626368259348478  1.0000
  H   H63       1.0  0.5125019459433972  0.6030202267901584  0.43736317398889074  1.0000
  H   H64       1.0  0.9874980542025839  0.39697977325244577  0.937363174116561  1.0000
  H   H65       1.0  0.7820374208824721  0.002779550444112421  0.1412546094334671  1.0000
  H   H66       1.0  0.7179625792635088  0.9972204495984918  0.6412546095611373  1.0000
  H   H67       1.0  0.21796257957060727  0.5027795504654146  0.35874539036260106  1.0000
  H   H68       1.0  0.2820374201222943  0.49722044957718964  0.8587453904902714  1.0000
  H   H69       1.0  0.539662391650025  0.9206302794047702  0.1402790853682586  1.0000
  H   H70       1.0  0.9603376074286797  0.07936972063783392  0.6402790854959288  1.0000
  H   H71       1.0  0.46033760773577814  0.42063027938346814  0.3597209144278096  1.0000
  H   H72       1.0  0.03966239195712347  0.579369720659136  0.8597209145554799  1.0000
  H   H73       1.0  0.63238282901016  0.8409900392205935  0.18223238308372763  1.0000
  H   H74       1.0  0.867617171135821  0.1590099608220108  0.6822323832113979  1.0000
  H   H75       1.0  0.3676171703756433  0.3409900391992913  0.3177676167123406  1.0000
  H   H76       1.0  0.1323828293172583  0.6590099608433129  0.8177676168400109  1.0000
  H   H77       1.0  0.6025157975748054  0.7711122662913502  0.1299121159212759  1.0000
  H   H78       1.0  0.8974842015038993  0.2288877337512539  0.6299121160489461  1.0000
  H   H79       1.0  0.3974842018109977  0.2711122662700482  0.3700878842063944  1.0000
  H   H80       1.0  0.10251579788190389  0.728887733772556  0.8700878840024626  1.0000
  H   H81       1.0  0.8420302117791955  0.9740991021275283  0.06208561802851925  1.0000
  H   H82       1.0  0.6579697883667854  0.025900897915075858  0.5620856181561895  1.0000
  H   H83       1.0  0.15796978867388392  0.47409910210622624  0.437914382099151  1.0000
  H   H84       1.0  0.34203021101901765  0.525900897936378  0.9379143818952193  1.0000
  H   H85       1.0  0.6536831407994677  0.9680579443173644  0.06823172716704615  1.0000
  H   H86       1.0  0.8463168593465135  0.03194205572523973  0.5682317272947164  1.0000
  H   H87       1.0  0.3463168596536118  0.4680579442960623  0.4317682726290221  1.0000
  H   H88       1.0  0.15368314003928982  0.5319420557465417  0.9317682727566923  1.0000
  H   H89       1.0  0.7512852844977939  0.8323373106864284  0.0604594158583694  1.0000
  H   H90       1.0  0.7487147156481871  0.16766268935617573  0.5604594156544377  1.0000
  H   H91       1.0  0.24871471595528558  0.3323373106651264  0.43954058426930087  1.0000
  H   H92       1.0  0.251285283737616  0.6676626893774777  0.939540584065369  1.0000
  H   H93       1.0  0.09204914198393659  0.7026760877529832  0.2153258982414306  1.0000
  H   H94       1.0  0.407950857708965  0.29732391228962096  0.7153258980374989  1.0000
  H   H95       1.0  0.9079508574018667  0.20267608773168116  0.28467410188623965  1.0000
  H   H96       1.0  0.5920491427441144  0.7973239123109229  0.7846741020139099  1.0000
  H   H97       1.0  0.15739530485334652  0.8291381080208865  0.2454324581337091  1.0000
  H   H98       1.0  0.34260469590683124  0.1708618920217176  0.7454324582613793  1.0000
  H   H99       1.0  0.8426046955997328  0.3291381079995845  0.2545675416623592  1.0000
  H   H100      1.0  0.6573953045462482  0.6708618920430197  0.7545675417900295  1.0000
  H   H101      1.0  0.20779790093158668  0.8099871254808069  0.18924346780090187  1.0000
  H   H102      1.0  0.2922020987613149  0.1900128745617972  0.689243467928572  1.0000
  H   H103      1.0  0.7922020984542165  0.3099871254595049  0.3107565319951664  1.0000
  H   H104      1.0  0.7077979006244882  0.6900128745830992  0.8107565321228366  1.0000
  H   H105      1.0  0.9411592424146402  0.06936052735780673  0.18721538951608693  1.0000
  H   H106      1.0  0.5588407577313407  0.9306394726847974  0.6872153896437571  1.0000
  H   H107      1.0  0.058840756971162866  0.5693605273791088  0.3127846106115833  1.0000
  H   H108      1.0  0.44115924272173873  0.43063947266349534  0.8127846104076515  1.0000
  H   H109      1.0  0.12013298010582649  0.026094920791690332  0.17390192555572995  1.0000
  H   H110      1.0  0.3798670206543513  0.9739050792509139  0.6739019256834001  1.0000
  H   H111      1.0  0.8798670203472528  0.5260949208129924  0.32609807424033826  1.0000
  H   H112      1.0  0.6201329797987282  0.4739050792296117  0.8260980743680085  1.0000
  H   H113      1.0  0.0669968666515531  0.041154379214487904  0.2299230775158179  1.0000
  H   H114      1.0  0.43300313304134846  0.9588456208281162  0.7299230776434882  1.0000
  H   H115      1.0  0.9330031327342501  0.54115437923579  0.27007692261185234  1.0000
  H   H116      1.0  0.5669968674117309  0.4588456208068142  0.7700769224079206  1.0000
  H   H117      1.0  0.826965643617583  0.7668006843049495  0.23479121800331793  1.0000
  H   H118      1.0  0.673034356528398  0.23319931573765454  0.7347912177993862  1.0000
  H   H119      1.0  0.17303435683549645  0.2668006842836475  0.26520878212435234  1.0000
  H   H120      1.0  0.3269656428574051  0.7331993157589567  0.7652087819204205  1.0000
  H   H121      1.0  0.7815223672691404  0.9236595538757958  0.22901266516521093  1.0000
  H   H122      1.0  0.7184776328768406  0.07634044616680846  0.7290126652928811  1.0000
  H   H123      1.0  0.21847763211666282  0.4236595538544936  0.2709873349624593  1.0000
  H   H124      1.0  0.2815223675762388  0.5763404461881105  0.7709873347585274  1.0000
  H   H125      1.0  0.9157956180711108  0.8779235375693907  0.26716603751297835  1.0000
  H   H126      1.0  0.5842043820748702  0.12207646247321347  0.7671660376406486  1.0000
  H   H127      1.0  0.08420438238196865  0.3779235375480886  0.2328339622830899  1.0000
  H   H128      1.0  0.4157956183782091  0.6220764624945155  0.7328339624107602  1.0000
  C   C1        1.0  0.3818369499459018  0.45406513410070853  0.1284729495595787  1.0000
  C   C2        1.0  0.11816305081427597  0.5459348650347847  0.6284729493556469  1.0000
  C   C3        1.0  0.6181630505071776  0.9540651341220105  0.37152705056809154  1.0000
  C   C4        1.0  0.8818369496388033  0.04593486592059359  0.8715270506957619  1.0000
  C   C5        1.0  0.2807504888903342  0.3823939310838317  0.15829818924110936  1.0000
  C   C6        1.0  0.21924951080256735  0.6176060689587725  0.6582981890371776  1.0000
  C   C7        1.0  0.7192495115627451  0.8823939311051338  0.3417018108865609  1.0000
  C   C8        1.0  0.7807504885832358  0.11760606893747037  0.8417018106826291  1.0000
  C   C9        1.0  0.3661780476939469  0.5905399262014918  0.1362093175305212  1.0000
  C   C10       1.0  0.13382195199895466  0.4094600738411123  0.6362093176581914  1.0000
  C   C11       1.0  0.6338219516918563  0.09053992618018974  0.363790682265547  1.0000
  C   C12       1.0  0.8661780473868486  0.9094600738624145  0.8637906823932172  1.0000
  C   C13       1.0  0.3569532551563846  0.25965889696126937  0.0525982226075044  1.0000
  C   C14       1.0  0.14304674453651697  0.7403411030813347  0.5525982227351747  1.0000
  C   C15       1.0  0.6430467452966948  0.7596588969825715  0.44740177752016586  1.0000
  C   C16       1.0  0.8569532548492862  0.24034110306003267  0.9474017773162341  1.0000
  C   C17       1.0  0.21969069076005263  0.20045747567402716  0.06996381251494035  1.0000
  C   C18       1.0  0.28030931000012516  0.7995425243685771  0.5699638126426106  1.0000
  C   C19       1.0  0.7803093096930268  0.7004574756953292  0.4300361876127299  1.0000
  C   C20       1.0  0.7196906904529542  0.29954252434727496  0.9300361874087981  1.0000
  C   C21       1.0  0.3596751893839586  0.2527138220995891  0.0018037544924376953  1.0000
  C   C22       1.0  0.14032481030894298  0.7472861779430151  0.501803754620108  1.0000
  C   C23       1.0  0.6403248110691208  0.7527138221208911  0.49819624530363055  1.0000
  C   C24       1.0  0.8596751890768602  0.247286177921713  0.9981962454313008  1.0000
  C   C25       1.0  0.4892054157154968  0.19900186732547728  0.07260887880268707  1.0000
  C   C26       1.0  0.010794583977404728  0.8009981327171268  0.5726088789303573  1.0000
  C   C27       1.0  0.5107945836703063  0.6990018673467794  0.42739112099338117  1.0000
  C   C28       1.0  0.9892054164756747  0.3009981326958248  0.9273911211210514  1.0000
  C   C29       1.0  0.7642196355609637  0.9119048250612595  0.12687372255053705  1.0000
  C   C30       1.0  0.7357803645850172  0.08809517498134477  0.6268737223466052  1.0000
  C   C31       1.0  0.2357803648921156  0.41190482503995735  0.3731262775771332  1.0000
  C   C32       1.0  0.2642196358680622  0.5880951750026469  0.8731262773732015  1.0000
  C   C33       1.0  0.627800407193095  0.8570796001832973  0.1464320762435028  1.0000
  C   C34       1.0  0.872199592952886  0.14292039985930682  0.646432076371173  1.0000
  C   C35       1.0  0.3721995932599843  0.35707960016199525  0.35356792355256544  1.0000
  C   C36       1.0  0.12780040750019347  0.6429203998806089  0.8535679236802357  1.0000
  C   C37       1.0  0.7539596395529442  0.9218756448251058  0.07647841307158301  1.0000
  C   C38       1.0  0.7460403595257605  0.07812435521749836  0.5764784131992533  1.0000
  C   C39       1.0  0.2460403598328589  0.42187564480380374  0.4235215867244852  1.0000
  C   C40       1.0  0.2539596398600427  0.5781243552388005  0.9235215868521555  1.0000
  C   C41       1.0  0.9898403401466909  0.8768894800255709  0.20027185461583974  1.0000
  C   C42       1.0  0.5101596599992901  0.12311052001703326  0.70027185474351  1.0000
  C   C43       1.0  0.010159660306388601  0.3768894800042688  0.2997281455118305  1.0000
  C   C44       1.0  0.48984034045378916  0.6231105200383353  0.7997281453078988  1.0000
  C   C45       1.0  0.11932047235002925  0.7993099102691442  0.21276668172700292  1.0000
  C   C46       1.0  0.38067952734287236  0.20069008977345984  0.7127666818546732  1.0000
  C   C47       1.0  0.880679527035774  0.29930991024784226  0.28723331840066735  1.0000
  C   C48       1.0  0.619320473110207  0.7006900897947619  0.7872333181967356  1.0000
  C   C49       1.0  0.03116588307504887  0.011399406183135733  0.19694453507882453  1.0000
  C   C50       1.0  0.46883411661785274  0.9886005938594684  0.6969445348748928  1.0000
  C   C51       1.0  0.9688341173780306  0.5113994062044378  0.3030554650488457  1.0000
  C   C52       1.0  0.5311658827679504  0.48860059383816634  0.8030554648449139  1.0000
  C   C53       1.0  0.8697161543966464  0.859689255088889  0.2343118352221525  1.0000
  C   C54       1.0  0.6302838457493345  0.1403107449537152  0.7343118350182207  1.0000
  C   C55       1.0  0.1302838460564329  0.35968925506758687  0.2656881649055177  1.0000
  C   C56       1.0  0.36971615363646865  0.6403107449750173  0.765688164701586  1.0000
  P   P1        1.0  0.3617927389813358  0.42354653961766847  0.06843719043134215  1.0000
  P   P2        1.0  0.1382072607115658  0.5764534604249357  0.5684371902274103  1.0000
  P   P3        1.0  0.6382072614717436  0.9235465396389706  0.4315628096963281  1.0000
  P   P4        1.0  0.8617927386742374  0.0764534604036336  0.9315628098239984  1.0000
  P   P5        1.0  0.9254033930629488  0.8270416656712728  0.14445530541280635  1.0000
  P   P6        1.0  0.5745966070830322  0.17295833437133135  0.6444553052088745  1.0000
  P   P7        1.0  0.07459660632285438  0.3270416656499708  0.3555446947148639  1.0000
  P   P8        1.0  0.4254033933700472  0.6729583343926334  0.8555446945109322  1.0000
  I   I1        1.0  0.14162682535525617  0.5147764615860987  0.04029241494807642  1.0000
  I   I2        1.0  0.35837317433764543  0.4852235384565054  0.5402924150757467  1.0000
  I   I3        1.0  0.8583731750978232  0.01477646156479665  0.4597075851795938  1.0000
  I   I4        1.0  0.6416268250481578  0.9852235384778074  0.959707584975662  1.0000
  I   I5        1.0  0.8605723969381464  0.637099276354678  0.9890707054087811  1.0000
  I   I6        1.0  0.6394276032078345  0.3629007236879262  0.4890707056127129  1.0000
  I   I7        1.0  0.13942760351493294  0.1370992763333759  0.5109292946426276  1.0000
  I   I8        1.0  0.36057239617796866  0.8629007237092282  0.010929294514957392  1.0000
  I   I9        1.0  0.5745734183733138  0.5187412169426246  0.034470846695958485  1.0000
  I   I10       1.0  0.9254265817726672  0.48125878309997944  0.5344708468236288  1.0000
  I   I11       1.0  0.42542658101248937  0.01874121692132261  0.4655291531001097  1.0000
  I   I12       1.0  0.0745734186804122  0.9812587831212815  0.96552915322778  1.0000
  I   I13       1.0  0.8722747590801949  0.6082734117541264  0.14577076896741817  1.0000
  I   I14       1.0  0.627725241065786  0.3917265882884778  0.6457707690950885  1.0000
  I   I15       1.0  0.12772524137288435  0.10827341173282432  0.3542292308286501  1.0000
  I   I16       1.0  0.37227475938729343  0.8917265883097798  0.8542292309563203  1.0000
  I   I17       1.0  0.6206956093826547  0.18583229119469571  0.1981695067634419  1.0000
  I   I18       1.0  0.8793043907633261  0.8141677088479085  0.6981695065595102  1.0000
  I   I19       1.0  0.3793043910704247  0.6858322903088868  0.30183049336422835  1.0000
  I   I20       1.0  0.12069560968975312  0.31416770882660633  0.8018304931602965  1.0000
  I   I21       1.0  0.8377926589164868  0.3093187424976957  0.13993469345853518  1.0000
  I   I22       1.0  0.6622073412294942  0.6906812575449085  0.6399346932546034  1.0000
  I   I23       1.0  0.1622073404693164  0.8093187425189977  0.36006530666913505  1.0000
  I   I24       1.0  0.33779265922358515  0.1906812575236064  0.8600653064652033  1.0000
  I   I25       1.0  0.4179307374761793  0.05298902269296043  0.2500416200965466  1.0000
  I   I26       1.0  0.08206926221672227  0.9470109773496438  0.7500416202242169  1.0000
  I   I27       1.0  0.5820692629769001  0.5529890227142625  0.2499583796995216  1.0000
  I   I28       1.0  0.9179307371690809  0.4470109773283416  0.7499583798271918  1.0000
  I   I29       1.0  0.11951368135819036  0.8564455649790983  0.09061029436059667  1.0000
  I   I30       1.0  0.38048631833471125  0.14355443506350582  0.5906102944882669  1.0000
  I   I31       1.0  0.8804863180276129  0.3564455649577963  0.40938970543547154  1.0000
  I   I32       1.0  0.6195136821183682  0.6435544350848079  0.9093897055631418  1.0000
