data_image0
_chemical_formula_structural       H18C44O8F10
_chemical_formula_sum              "H18 C44 O8 F10"
_cell_length_a       5.964147345489049
_cell_length_b       7.381976035065038
_cell_length_c       20.2113854209458
_cell_angle_alpha    87.77680417892907
_cell_angle_beta     87.077003545774
_cell_angle_gamma    86.8964792009957

_space_group_name_H-M_alt    "P 1"
_space_group_IT_number       1

loop_
  _space_group_symop_operation_xyz
  'x, y, z'

loop_
  _atom_site_type_symbol
  _atom_site_label
  _atom_site_symmetry_multiplicity
  _atom_site_fract_x
  _atom_site_fract_y
  _atom_site_fract_z
  _atom_site_occupancy
  H   H1        1.0  0.6647839673351627  0.5933336662410622  0.10999840424782868  1.0000
  H   H2        1.0  0.3352160321860647  0.40666633312989414  0.8900015959650869  1.0000
  H   H3        1.0  0.3692449035186872  0.6274886629695811  0.10100421191915461  1.0000
  H   H4        1.0  0.6307550976809653  0.37251133640793604  0.8989957882687892  1.0000
  H   H5        1.0  0.9043526066210111  0.9789046080593922  0.3106653978842338  1.0000
  H   H6        1.0  0.09564739290086732  0.02109539132048479  0.6893346018337858  1.0000
  H   H7        1.0  0.7998845199585123  0.07909470847671404  0.1245036802310379  1.0000
  H   H8        1.0  0.20011547946672265  0.920905292251724  0.8754963199673382  1.0000
  H   H9        1.0  0.09138568293855114  0.11537920040061575  0.10624472775769513  1.0000
  H   H10       1.0  0.9086143164873349  0.884620800336743  0.8937552719457849  1.0000
  H   H11       1.0  0.9531013009324284  0.9080988835397048  0.4305218448591269  1.0000
  H   H12       1.0  0.046898698492806506  0.09190111718873327  0.5694781553392492  1.0000
  H   H13       1.0  0.5848239972719157  0.783802587415038  0.26556440545390975  1.0000
  H   H14       1.0  0.41517600215397027  0.21619741332232062  0.7344355942495703  1.0000
  H   H15       1.0  0.6344326089715953  0.7080702370685561  0.38570503537401224  1.0000
  H   H16       1.0  0.3655673904542907  0.2919297636688027  0.6142949643294678  1.0000
  H   H17       1.0  0.317606253474789  0.771967723497959  0.46817906157611333  1.0000
  H   H18       1.0  0.6823937460470894  0.22803227588191793  0.5318209381419063  1.0000
  C   C1        1.0  0.2752905735346629  0.3780633265992999  0.28029616684014663  1.0000
  C   C2        1.0  0.7247094259872155  0.621936672780577  0.719703832877873  1.0000
  C   C3        1.0  0.08888577041585284  0.42975694705133  0.32143798481350194  1.0000
  C   C4        1.0  0.9111142306884581  0.5702430536925894  0.6785620148650066  1.0000
  C   C5        1.0  0.08409112862958318  0.39302123529338345  0.3895708900113397  1.0000
  C   C6        1.0  0.9159088708916443  0.6069787640775728  0.610429110201576  1.0000
  C   C7        1.0  0.2674920428859372  0.3001283049129417  0.4176261240464606  1.0000
  C   C8        1.0  0.7325079565399486  0.699871695824417  0.5823738756570195  1.0000
  C   C9        1.0  0.45439651261211206  0.2457629341664317  0.37773312360730343  1.0000
  C   C10       1.0  0.5456034869097663  0.7542370652134451  0.6222668761107162  1.0000
  C   C11       1.0  0.4570030651834612  0.2844058391548517  0.309747808735621  1.0000
  C   C12       1.0  0.5429969343384171  0.7155941602250253  0.6902521909823985  1.0000
  C   C13       1.0  0.2757562837191256  0.4241781049608917  0.20755997964821044  1.0000
  C   C14       1.0  0.7242437158021019  0.5758218944100646  0.7924400205647051  1.0000
  C   C15       1.0  0.5037983768264667  0.5280323518012787  0.1150970729674443  1.0000
  C   C16       1.0  0.49620162259941925  0.47196764893608  0.8849029267360359  1.0000
  C   C17       1.0  0.5051977647284023  0.36757303873342473  0.07672325913865626  1.0000
  C   C18       1.0  0.49480223479282526  0.6324269606375317  0.9232767410742592  1.0000
  C   C19       1.0  0.5031866501987107  0.2269588569866251  0.04666259336809539  1.0000
  C   C20       1.0  0.49681334922652426  0.773041143741813  0.9533374068302807  1.0000
  C   C21       1.0  0.5012850593686948  0.07195848902165831  0.01430893112527098  1.0000
  C   C22       1.0  0.4987149418316087  0.9280415103647792  0.985691068567777  1.0000
  C   C23       1.0  0.24188037087096237  0.8846239901435589  0.28117830651832587  1.0000
  C   C24       1.0  0.7581196285542726  0.11537601058487926  0.7188216936800502  1.0000
  C   C25       1.0  0.06324279565225323  0.9196415040400666  0.3274806067201908  1.0000
  C   C26       1.0  0.9367572037736327  0.08035849669729207  0.6725193929832892  1.0000
  C   C27       1.0  0.09153390191603543  0.8798390895949757  0.3946025392010959  1.0000
  C   C28       1.0  0.908466097605192  0.12016090977598065  0.6053974610118198  1.0000
  C   C29       1.0  0.29653349222379827  0.8032054961484009  0.41567089947871416  1.0000
  C   C30       1.0  0.703466508879862  0.19679450458659803  0.5843291006946904  1.0000
  C   C31       1.0  0.4746869265087462  0.7677576138786157  0.36945708532834964  1.0000
  C   C32       1.0  0.5253130730131322  0.23224238550126114  0.63054291438967  1.0000
  C   C33       1.0  0.44817950257051586  0.809361924576308  0.3023841584129501  1.0000
  C   C34       1.0  0.5518204985337952  0.19063807616761141  0.6976158412655584  1.0000
  C   C35       1.0  0.22140367586768822  0.9266483792076168  0.2091195307412307  1.0000
  C   C36       1.0  0.7785963236535391  0.07335162016333953  0.7908804694716849  1.0000
  C   C37       1.0  0.9703166099115091  0.01516797999158043  0.12418622889003357  1.0000
  C   C38       1.0  0.029683391192150965  0.9848320207434184  0.875813771283371  1.0000
  C   C39       1.0  0.9867361693484333  0.8572252453164547  0.08379307166389476  1.0000
  C   C40       1.0  0.013263830172794195  0.14277475405450152  0.9162069285490207  1.0000
  C   C41       1.0  0.9994244393053144  0.5704542618454979  0.015361730502911878  1.0000
  C   C42       1.0  0.0005755601199204581  0.4295457388829403  0.9846382696954643  1.0000
  C   C43       1.0  0.9940817993176818  0.721520700613208  0.050578108142728645  1.0000
  C   C44       1.0  0.0059182001075531185  0.2784793001152301  0.9494218920556474  1.0000
  O   O1        1.0  0.11500993448441588  0.4107096148623458  0.17356140208359866  1.0000
  O   O2        1.0  0.8849900650374627  0.5892903845175311  0.8264385976344208  1.0000
  O   O3        1.0  0.47743894289685235  0.4842449996244187  0.18641448005482553  1.0000
  O   O4        1.0  0.5225610583034511  0.5157549997620189  0.8135855196382225  1.0000
  O   O5        1.0  0.004979204291114739  0.9677641397347524  0.1939068499725759  1.0000
  O   O6        1.0  0.9950207952301127  0.032235859636204  0.8060931502403398  1.0000
  O   O7        1.0  0.3797912985968335  0.9242930584906893  0.16809605430683858  1.0000
  O   O8        1.0  0.6202087008284015  0.0757069422377488  0.8319039458915375  1.0000
  F   F1        1.0  0.9106724208968288  0.5235718225250628  0.29640751081152306  1.0000
  F   F2        1.0  0.08932757852905715  0.4764281782122959  0.703592488891957  1.0000
  F   F3        1.0  0.9052542172434367  0.44859633439567276  0.42859511518202553  1.0000
  F   F4        1.0  0.09474578386022335  0.5514036663393262  0.5714048849913789  1.0000
  F   F5        1.0  0.26442815536851094  0.26192948188503135  0.4833219198961353  1.0000
  F   F6        1.0  0.7355718441533674  0.7380705174948455  0.5166780798218843  1.0000
  F   F7        1.0  0.6304005660120667  0.15472677946848126  0.4054444743792732  1.0000
  F   F8        1.0  0.3695994350915934  0.8452732212665177  0.5945555257941312  1.0000
  F   F9        1.0  0.6380005847181698  0.22348371795408048  0.2729283441548825  1.0000
  F   F10       1.0  0.36199941470706526  0.7765162827743577  0.7270716560434936  1.0000
