data_image0
_chemical_formula_structural       H44C170
_chemical_formula_sum              "H44 C170"
_cell_length_a       10.024257665680276
_cell_length_b       18.6645372819194
_cell_length_c       12.578137061990615
_cell_angle_alpha    90.0
_cell_angle_beta     112.34743433995337
_cell_angle_gamma    90.0

_space_group_name_H-M_alt    "P 1"
_space_group_IT_number       1

loop_
  _space_group_symop_operation_xyz
  'x, y, z'

loop_
  _atom_site_type_symbol
  _atom_site_label
  _atom_site_symmetry_multiplicity
  _atom_site_fract_x
  _atom_site_fract_y
  _atom_site_fract_z
  _atom_site_occupancy
  H   H1        1.0  0.45984866429352056  0.24999999997429082  0.608062227922128  1.0000
  H   H2        1.0  0.5401513358292003  0.7499999999228725  0.39193777201695895  1.0000
  H   H3        1.0  0.5718541246022031  0.24999999997429082  0.37108734608952515  1.0000
  H   H4        1.0  0.42814587552051775  0.7499999999228725  0.6289126538495619  1.0000
  H   H5        1.0  0.5511172456491057  0.09537254704537428  0.41414959515329336  1.0000
  H   H6        1.0  0.44888275339504424  0.5953725475297313  0.5858504044546038  1.0000
  H   H7        1.0  0.44888275339504424  0.9046274528517889  0.5858504044546038  1.0000
  H   H8        1.0  0.5511172456491057  0.40462745290320734  0.41414959515329336  1.0000
  H   H9        1.0  0.352587626791053  0.008810815265123386  0.3822279739949754  1.0000
  H   H10       1.0  0.6474123733316678  0.5088108157494804  0.6177720259441116  1.0000
  H   H11       1.0  0.6474123733316678  0.9911891846320398  0.6177720259441116  1.0000
  H   H12       1.0  0.352587626791053  0.49118918468345824  0.3822279739949754  1.0000
  H   H13       1.0  0.1088828547909878  0.050830341286791134  0.36206079513590705  1.0000
  H   H14       1.0  0.891117145331733  0.5508303412353728  0.6379392048031799  1.0000
  H   H15       1.0  0.891117145331733  0.9491696586103722  0.6379392048031799  1.0000
  H   H16       1.0  0.1088828547909878  0.4491696586617905  0.36206079513590705  1.0000
  H   H17       1.0  0.06293398582995523  0.1801792495149477  0.3807802083639087  1.0000
  H   H18       1.0  0.9370660142927655  0.6801792494635294  0.6192197915751783  1.0000
  H   H19       1.0  0.9370660142927655  0.8198207503822155  0.6192197915751783  1.0000
  H   H20       1.0  0.06293398582995523  0.3198207504336339  0.3807802083639087  1.0000
  H   H21       1.0  0.4400213474115133  0.061260684512529  0.6754794106895046  1.0000
  H   H22       1.0  0.5599786527112076  0.5612606844611105  0.3245205892495824  1.0000
  H   H23       1.0  0.5599786527112076  0.9387393153846343  0.3245205892495824  1.0000
  H   H24       1.0  0.4400213474115133  0.4387393154360526  0.6754794106895046  1.0000
  H   H25       1.0  0.20975095991900827  0.009152895537650956  0.5421983711959294  1.0000
  H   H26       1.0  0.7902490402037126  0.5091528954862325  0.45780162874315766  1.0000
  H   H27       1.0  0.7902490402037126  0.9908471048952876  0.45780162874315766  1.0000
  H   H28       1.0  0.20975095991900827  0.4908471044109306  0.5421983711959294  1.0000
  H   H29       1.0  0.09924530304239142  0.9060986278177283  0.6030630609918975  1.0000
  H   H30       1.0  0.9007546970803294  0.40609862786914663  0.3969369389471894  1.0000
  H   H31       1.0  0.9007546970803294  0.093901372079435  0.3969369389471894  1.0000
  H   H32       1.0  0.09924530304239142  0.5939013720280166  0.6030630609918975  1.0000
  H   H33       1.0  0.21781166354330034  0.8565628024160646  0.8008792283685993  1.0000
  H   H34       1.0  0.7821883365794204  0.356562802467483  0.1991207715704878  1.0000
  H   H35       1.0  0.7821883365794204  0.14343719748109857  0.1991207715704878  1.0000
  H   H36       1.0  0.21781166354330034  0.6434371974296802  0.8008792283685993  1.0000
  H   H37       1.0  0.445118350650777  0.9105480641335403  0.9364919866732322  1.0000
  H   H38       1.0  0.5548816494719438  0.4105480636491833  0.06350801326585481  1.0000
  H   H39       1.0  0.5548816494719438  0.08945193629939835  0.06350801326585481  1.0000
  H   H40       1.0  0.445118350650777  0.58945193624798  0.9364919866732322  1.0000
  H   H41       1.0  0.5593282204089249  0.011832970550732442  0.8737737355157631  1.0000
  H   H42       1.0  0.440671779713796  0.5118329704993141  0.126226264423324  1.0000
  H   H43       1.0  0.440671779713796  0.9881670293464307  0.126226264423324  1.0000
  H   H44       1.0  0.5593282204089249  0.4881670293978492  0.8737737355157631  1.0000
  C   C1        1.0  0.645413792869673  0.24999999997429082  0.5576123264632386  1.0000
  C   C2        1.0  0.35458620725304785  0.7499999999228725  0.44238767347584845  1.0000
  C   C3        1.0  0.5784286632756649  0.24999999997429082  0.6532810800115846  1.0000
  C   C4        1.0  0.42157133684705594  0.7499999999228725  0.3467189199275025  1.0000
  C   C5        1.0  0.6216356330071839  0.18707630504092118  0.7369447107106841  1.0000
  C   C6        1.0  0.37836436711553684  0.6870763049895028  0.2630552892284028  1.0000
  C   C7        1.0  0.37836436711553684  0.812923694856242  0.2630552892284028  1.0000
  C   C8        1.0  0.6216356330071839  0.3129236949076604  0.7369447107106841  1.0000
  C   C9        1.0  0.6944131130253931  0.12734123724044344  0.7230106586539593  1.0000
  C   C10       1.0  0.3055868870914128  0.6273412371890251  0.2769893420783537  1.0000
  C   C11       1.0  0.3055868870914128  0.8726587626567198  0.2769893420783537  1.0000
  C   C12       1.0  0.6944131130253931  0.37265876270813814  0.7230106586539593  1.0000
  C   C13       1.0  0.7600528235517355  0.12771907730652596  0.6359968854660599  1.0000
  C   C14       1.0  0.2399471754924144  0.6277190772551076  0.3640031141418372  1.0000
  C   C15       1.0  0.2399471754924144  0.8722809225906373  0.3640031141418372  1.0000
  C   C16       1.0  0.7600528235517355  0.37228092264205564  0.6359968854660599  1.0000
  C   C17       1.0  0.7479805248162017  0.18715853477835417  0.5677221503319654  1.0000
  C   C18       1.0  0.25201947530651914  0.6871585347269358  0.4322778496071216  1.0000
  C   C19       1.0  0.25201947530651914  0.8128414656545845  0.4322778496071216  1.0000
  C   C20       1.0  0.7479805248162017  0.31284146517022743  0.5677221503319654  1.0000
  C   C21       1.0  0.8716628459180008  0.21112309298003504  0.546512004303135  1.0000
  C   C22       1.0  0.12833715420472  0.7111230929286166  0.45348799563595205  1.0000
  C   C23       1.0  0.12833715420472  0.7888769069171282  0.45348799563595205  1.0000
  C   C24       1.0  0.8716628459180008  0.28887690696854657  0.546512004303135  1.0000
  C   C25       1.0  0.8947513487643659  0.08890560183388348  0.6833444905125716  1.0000
  C   C26       1.0  0.10524865027978385  0.5889056017824651  0.3166555090953255  1.0000
  C   C27       1.0  0.10524865027978385  0.9110943980632797  0.3166555090953255  1.0000
  C   C28       1.0  0.8947513487643659  0.41109439811469817  0.6833444905125716  1.0000
  C   C29       1.0  0.9139816190292788  0.06469883671693237  0.7980381951903252  1.0000
  C   C30       1.0  0.08601838109344195  0.564698836665514  0.20196180474876177  1.0000
  C   C31       1.0  0.08601838109344195  0.9353011631802308  0.20196180474876177  1.0000
  C   C32       1.0  0.9139816190292788  0.43530116323164925  0.7980381951903252  1.0000
  C   C33       1.0  0.7904997173392799  0.08835269126106167  0.822179142496569  1.0000
  C   C34       1.0  0.20950028278344102  0.5883526912096433  0.17782085744251805  1.0000
  C   C35       1.0  0.20950028278344102  0.9116473086361015  0.17782085744251805  1.0000
  C   C36       1.0  0.7904997173392799  0.4116473086875199  0.822179142496569  1.0000
  C   C37       1.0  0.6442208600651076  0.21112092844740346  0.8509595768659657  1.0000
  C   C38       1.0  0.35577914005761335  0.7111209283959851  0.1490404230731213  1.0000
  C   C39       1.0  0.35577914005761335  0.7888790719855351  0.1490404230731213  1.0000
  C   C40       1.0  0.6442208600651076  0.28887907150117814  0.8509595768659657  1.0000
  C   C41       1.0  0.7341619510678568  0.17330346212940573  0.9482380588290189  1.0000
  C   C42       1.0  0.2658380479703783  0.6733034620779873  0.05176194157210427  1.0000
  C   C43       1.0  0.2658380479703783  0.8266965377677575  0.05176194157210427  1.0000
  C   C44       1.0  0.7341619510678568  0.3266965378191759  0.9482380588290189  1.0000
  C   C45       1.0  0.8094872207228503  0.11038497171830916  0.9336849900017624  1.0000
  C   C46       1.0  0.19051277939987057  0.6103849716668908  0.06631500993732466  1.0000
  C   C47       1.0  0.19051277939987057  0.889615028178854  0.06631500993732466  1.0000
  C   C48       1.0  0.8094872207228503  0.38961502823027244  0.9336849900017624  1.0000
  C   C49       1.0  0.014442119358125676  0.11088401918245513  0.6599080776250186  1.0000
  C   C50       1.0  0.9855578807586802  0.6108840191310367  0.3400919231072944  1.0000
  C   C51       1.0  0.9855578807586802  0.8891159807147082  0.3400919231072944  1.0000
  C   C52       1.0  0.014442119358125676  0.38911598076612647  0.6599080776250186  1.0000
  C   C53       1.0  0.0025817845088592912  0.17358256093165925  0.5897499957888177  1.0000
  C   C54       1.0  0.9974182156138616  0.6735825608802408  0.41025000415026935  1.0000
  C   C55       1.0  0.9974182156138616  0.8264174395012794  0.41025000415026935  1.0000
  C   C56       1.0  0.0025817845088592912  0.3264174390169224  0.5897499957888177  1.0000
  C   C57       1.0  0.1382786822252707  0.21257000749991234  0.6359425629897905  1.0000
  C   C58       1.0  0.8617213178974501  0.712570007448494  0.36405743694929654  1.0000
  C   C59       1.0  0.8617213178974501  0.7874299923972509  0.36405743694929654  1.0000
  C   C60       1.0  0.1382786822252707  0.2874299924486693  0.6359425629897905  1.0000
  C   C61       1.0  0.2336788903389149  0.17354118085411785  0.7357262155486078  1.0000
  C   C62       1.0  0.7663211086993201  0.6735411808026995  0.26427378485251535  1.0000
  C   C63       1.0  0.7663211086993201  0.8264588190430454  0.26427378485251535  1.0000
  C   C64       1.0  0.2336788903389149  0.3264588190944638  0.7357262155486078  1.0000
  C   C65       1.0  0.156930472242848  0.11064776044571852  0.7505825272873327  1.0000
  C   C66       1.0  0.8430695278798728  0.6106477603943001  0.24941747265175443  1.0000
  C   C67       1.0  0.8430695278798728  0.8893522394514448  0.24941747265175443  1.0000
  C   C68       1.0  0.156930472242848  0.38935223950286313  0.7505825272873327  1.0000
  C   C69       1.0  0.175493742468458  0.08748932509470028  0.8610307041721311  1.0000
  C   C70       1.0  0.8245062576542629  0.5874893250432819  0.13896929576695588  1.0000
  C   C71       1.0  0.8245062576542629  0.9125106753382384  0.13896929576695588  1.0000
  C   C72       1.0  0.175493742468458  0.4125106748538813  0.8610307041721311  1.0000
  C   C73       1.0  0.051615617103061964  0.06380678835010098  0.8851517398898621  1.0000
  C   C74       1.0  0.948384383019659  0.5638067882986826  0.11484826004922505  1.0000
  C   C75       1.0  0.948384383019659  0.9361932120828376  0.11484826004922505  1.0000
  C   C76       1.0  0.051615617103061964  0.4361932115984806  0.8851517398898621  1.0000
  C   C77       1.0  0.07161734259682255  0.08742558496645438  0.00044232266365730694  1.0000
  C   C78       1.0  0.9283826575258984  0.587425584915036  0.9995576772754297  1.0000
  C   C79       1.0  0.9283826575258984  0.9125744154664843  0.9995576772754297  1.0000
  C   C80       1.0  0.07161734259682255  0.4125744149821272  0.00044232266365730694  1.0000
  C   C81       1.0  0.9526472788497783  0.11034496644045406  0.023889775152284843  1.0000
  C   C82       1.0  0.04735272127294261  0.6103449663890357  0.9761102247868021  1.0000
  C   C83       1.0  0.04735272127294261  0.8896550334567093  0.9761102247868021  1.0000
  C   C84       1.0  0.9526472788497783  0.3896550335081275  0.023889775152284843  1.0000
  C   C85       1.0  0.9652736111920928  0.17362131678127254  0.09438198211294113  1.0000
  C   C86       1.0  0.03472638893062804  0.6736213167298541  0.9056180178261458  1.0000
  C   C87       1.0  0.03472638893062804  0.8263786836516661  0.9056180178261458  1.0000
  C   C88       1.0  0.9652736111920928  0.3263786837030845  0.09438198211294113  1.0000
  C   C89       1.0  0.8299183998925325  0.21256216749842768  0.04784455193964678  1.0000
  C   C90       1.0  0.1700816002301884  0.7125621674470093  0.9521554479994401  1.0000
  C   C91       1.0  0.1700816002301884  0.7874378323987355  0.9521554479994401  1.0000
  C   C92       1.0  0.8299183998925325  0.2874378324501539  0.04784455193964678  1.0000
  C   C93       1.0  0.09557110897937254  0.21107470978218984  0.1388630239631193  1.0000
  C   C94       1.0  0.9044288911433485  0.7110747097307715  0.8611369759759677  1.0000
  C   C95       1.0  0.9044288911433485  0.7889252901149734  0.8611369759759677  1.0000
  C   C96       1.0  0.09557110897937254  0.28892529016639174  0.1388630239631193  1.0000
  C   C97       1.0  0.20702574569534057  0.1262447080476289  0.047078007255195724  1.0000
  C   C98       1.0  0.7929742533488094  0.6262447079962106  0.9529219923527014  1.0000
  C   C99       1.0  0.7929742533488094  0.8737552923853098  0.9529219923527014  1.0000
  C   C100      1.0  0.20702574569534057  0.3737552919009527  0.047078007255195724  1.0000
  C   C101      1.0  0.2709249707014374  0.12639447066739168  0.9606885648945248  1.0000
  C   C102      1.0  0.7290750283427126  0.6263944706159733  0.03931143471337239  1.0000
  C   C103      1.0  0.7290750283427126  0.8736055292297716  0.03931143471337239  1.0000
  C   C104      1.0  0.2709249707014374  0.37360552928118995  0.9606885648945248  1.0000
  C   C105      1.0  0.32554191595367904  0.2110279301601284  0.8320031854394865  1.0000
  C   C106      1.0  0.6744580841690417  0.71102793010871  0.16799681449960063  1.0000
  C   C107      1.0  0.6744580841690417  0.7889720697370348  0.16799681449960063  1.0000
  C   C108      1.0  0.32554191595367904  0.28897206978845325  0.8320031854394865  1.0000
  C   C109      1.0  0.34492480810510545  0.18700014671036472  0.9467256611707209  1.0000
  C   C110      1.0  0.6550751920176153  0.6870001466589464  0.05327433876836604  1.0000
  C   C111      1.0  0.6550751920176153  0.8129998531867985  0.05327433876836604  1.0000
  C   C112      1.0  0.34492480810510545  0.3129998532382169  0.9467256611707209  1.0000
  C   C113      1.0  0.357389483321091  0.24999999997429082  0.017887569359928596  1.0000
  C   C114      1.0  0.6426105168016298  0.7499999999228725  0.9821124305791584  1.0000
  C   C115      1.0  0.29558732702199964  0.24999999997429082  0.1006260860694247  1.0000
  C   C116      1.0  0.7044126731007212  0.7499999999228725  0.8993739138696624  1.0000
  C   C117      1.0  0.21921254999667641  0.18696005517266961  0.11535946580869516  1.0000
  C   C118      1.0  0.7807874501260444  0.6869600551212512  0.8846405341303918  1.0000
  C   C119      1.0  0.7807874501260444  0.8130399447244937  0.8846405341303918  1.0000
  C   C120      1.0  0.21921254999667641  0.313039944775912  0.11535946580869516  1.0000
  C   C121      1.0  0.520057596115287  0.24999999997429082  0.43414161409174845  1.0000
  C   C122      1.0  0.4799424040074339  0.7499999999228725  0.5658583858473385  1.0000
  C   C123      1.0  0.4197658874575377  0.18673417601283188  0.41748934168188134  1.0000
  C   C124      1.0  0.5802341126651832  0.6867341759614135  0.5825106582572057  1.0000
  C   C125      1.0  0.5802341126651832  0.8132658238843313  0.5825106582572057  1.0000
  C   C126      1.0  0.4197658874575377  0.31326582393574975  0.41748934168188134  1.0000
  C   C127      1.0  0.44613302659120735  0.11425707413951465  0.4091794514138284  1.0000
  C   C128      1.0  0.5538669735315135  0.6142570740880963  0.5908205485252586  1.0000
  C   C129      1.0  0.5538669735315135  0.8857429257576485  0.5908205485252586  1.0000
  C   C130      1.0  0.44613302659120735  0.38574292580906694  0.4091794514138284  1.0000
  C   C131      1.0  0.3331734897484929  0.06562565797902481  0.3900006941682802  1.0000
  C   C132      1.0  0.6668265103742279  0.5656256579276064  0.6099993057708069  1.0000
  C   C133      1.0  0.6668265103742279  0.9343743419181385  0.6099993057708069  1.0000
  C   C134      1.0  0.3331734897484929  0.4343743419695568  0.3900006941682802  1.0000
  C   C135      1.0  0.19649294089552227  0.08930394013114211  0.38002538084073517  1.0000
  C   C136      1.0  0.8035070592271986  0.5893039400797238  0.6199746190983518  1.0000
  C   C137      1.0  0.8035070592271986  0.9106960597660212  0.6199746190983518  1.0000
  C   C138      1.0  0.19649294089552227  0.4106960598174395  0.38002538084073517  1.0000
  C   C139      1.0  0.16999322682144868  0.16192588942066713  0.3898029012193132  1.0000
  C   C140      1.0  0.8300067733012721  0.6619258893692487  0.6101970987197737  1.0000
  C   C141      1.0  0.8300067733012721  0.8380741104764962  0.6101970987197737  1.0000
  C   C142      1.0  0.16999322682144868  0.3380741105279145  0.3898029012193132  1.0000
  C   C143      1.0  0.28177465272156327  0.21082003001551786  0.4073712204648142  1.0000
  C   C144      1.0  0.7182253463225867  0.7108200304998749  0.5926287791430829  1.0000
  C   C145      1.0  0.7182253463225867  0.7891799698816454  0.5926287791430829  1.0000
  C   C146      1.0  0.28177465272156327  0.2891799699330637  0.4073712204648142  1.0000
  C   C147      1.0  0.39158835709457745  0.016534742615824615  0.703534331819873  1.0000
  C   C148      1.0  0.6084116430222284  0.5165347425644062  0.29646566891244003  1.0000
  C   C149      1.0  0.6084116430222284  0.983465257817114  0.29646566891244003  1.0000
  C   C150      1.0  0.39158835709457745  0.48346525733275697  0.703534331819873  1.0000
  C   C151      1.0  0.26195972149782665  0.9869959502208222  0.6281199767040954  1.0000
  C   C152      1.0  0.7380402786248942  0.4869959502722405  0.3718800232349916  1.0000
  C   C153      1.0  0.7380402786248942  0.013004049676341079  0.3718800232349916  1.0000
  C   C154      1.0  0.26195972149782665  0.5130040496249226  0.6281199767040954  1.0000
  C   C155      1.0  0.199418236250223  0.9294017075260761  0.6628127452510706  1.0000
  C   C156      1.0  0.8005817638724978  0.4294017075774946  0.33718725468801647  1.0000
  C   C157      1.0  0.8005817638724978  0.07059829237108703  0.33718725468801647  1.0000
  C   C158      1.0  0.199418236250223  0.5705982923196686  0.6628127452510706  1.0000
  C   C159      1.0  0.2659032865986613  0.9017480409923768  0.7736276887770006  1.0000
  C   C160      1.0  0.7340967124454886  0.40174804104379513  0.22637231083089654  1.0000
  C   C161      1.0  0.7340967124454886  0.09825195890478647  0.22637231083089654  1.0000
  C   C162      1.0  0.2659032865986613  0.5982519588533681  0.7736276887770006  1.0000
  C   C163      1.0  0.3942266604149153  0.9319798512685741  0.8497852453267193  1.0000
  C   C164      1.0  0.6057733397078054  0.4319798513199925  0.15021475461236766  1.0000
  C   C165      1.0  0.6057733397078054  0.0680201486285891  0.15021475461236766  1.0000
  C   C166      1.0  0.3942266604149153  0.5680201485771706  0.8497852453267193  1.0000
  C   C167      1.0  0.45801421553546356  0.9890455327752773  0.8146311867725804  1.0000
  C   C168      1.0  0.5419857845872573  0.48904553229092024  0.1853688131665066  1.0000
  C   C169      1.0  0.5419857845872573  0.01095446765766132  0.1853688131665066  1.0000
  C   C170      1.0  0.45801421553546356  0.510954467606243  0.8146311867725804  1.0000
