data_image0
_chemical_formula_structural       H16C16N2F12I2
_chemical_formula_sum              "H16 C16 N2 F12 I2"
_cell_length_a       5.608503584161675
_cell_length_b       8.068216548147314
_cell_length_c       12.327155145944927
_cell_angle_alpha    93.9036683853476
_cell_angle_beta     97.99780964473612
_cell_angle_gamma    99.49962052592316

_space_group_name_H-M_alt    "P 1"
_space_group_IT_number       1

loop_
  _space_group_symop_operation_xyz
  'x, y, z'

loop_
  _atom_site_type_symbol
  _atom_site_label
  _atom_site_symmetry_multiplicity
  _atom_site_fract_x
  _atom_site_fract_y
  _atom_site_fract_z
  _atom_site_occupancy
  H   H1        1.0  0.6206536744746036  0.06463716803309738  0.32005759137604906  1.0000
  H   H2        1.0  0.37934632530855544  0.9353628321941849  0.679942409204462  1.0000
  H   H3        1.0  0.4123473448927599  0.2553214699946339  0.41329929186050535  1.0000
  H   H4        1.0  0.5876526546088122  0.7446785300904238  0.5867007078973977  1.0000
  H   H5        1.0  0.9500858617786642  0.7366520629169824  0.26399604275203836  1.0000
  H   H6        1.0  0.049914137722908106  0.2633479371680754  0.7360039570058647  1.0000
  H   H7        1.0  0.024355025079141533  0.9421735919965346  0.3364660647244985  1.0000
  H   H8        1.0  0.9756449741445634  0.057826406834448923  0.663533935049522  1.0000
  H   H9        1.0  0.7518649951983748  0.8829920763368706  0.2379034579251421  1.0000
  H   H10       1.0  0.24813500402533017  0.1170079224941129  0.7620965418488784  1.0000
  H   H11       1.0  0.9413800317890537  0.5771573284731848  0.4004638526131655  1.0000
  H   H12       1.0  0.058619967994105314  0.4228426717540976  0.5995361479673456  1.0000
  H   H13       1.0  0.7360848378543691  0.5799178254410613  0.4971680396393966  1.0000
  H   H14       1.0  0.2639151631553301  0.42008217340073606  0.5028319601362155  1.0000
  H   H15       1.0  0.012308494647952008  0.7322009698531146  0.5162786028456258  1.0000
  H   H16       1.0  0.9876915048536203  0.26779903023194307  0.48372139691227745  1.0000
  C   C1        1.0  0.0681765646097171  0.3491655349498804  0.1691882360701986  1.0000
  C   C2        1.0  0.931823434891855  0.6508344651351774  0.8308117636877045  1.0000
  C   C3        1.0  0.16191684160910547  0.21078524974279167  0.10063281464561422  1.0000
  C   C4        1.0  0.8380831578924668  0.7892147503422662  0.899367185112289  1.0000
  C   C5        1.0  0.9576606071662496  0.08242646515547024  0.022279359850723275  1.0000
  C   C6        1.0  0.042339392335322676  0.9175735349295876  0.9777206399071798  1.0000
  C   C7        1.0  0.6229925589565771  0.8866126078794391  0.44436914371793995  1.0000
  C   C8        1.0  0.3770074423309895  0.11338739221643246  0.5556308560415549  1.0000
  C   C9        1.0  0.5696887912262226  0.03381292853234473  0.39905586507874835  1.0000
  C   C10       1.0  0.4303112085569365  0.9661870716949377  0.6009441355017627  1.0000
  C   C11       1.0  0.4488412001745242  0.14391358345593727  0.45304155607188673  1.0000
  C   C12       1.0  0.5511587993270479  0.8560864166291204  0.5469584436860164  1.0000
  C   C13       1.0  0.8737646344557388  0.8382465580929818  0.3022012615865719  1.0000
  C   C14       1.0  0.12623536532742038  0.1617534421343006  0.6977987389939392  1.0000
  C   C15       1.0  0.8636969759219035  0.6599281611163891  0.4546614079266247  1.0000
  C   C16       1.0  0.13630302330180127  0.3400718377145943  0.5453385918473956  1.0000
  N   N1        1.0  0.7365774688082452  0.7706629953649272  0.3871268527793136  1.0000
  N   N2        1.0  0.263422530693327  0.22933700472013052  0.6128731469785895  1.0000
  F   F1        1.0  0.9137674741497713  0.4249796350609832  0.10159809502014489  1.0000
  F   F2        1.0  0.08623252563338779  0.5750203651662993  0.8984019055603661  1.0000
  F   F3        1.0  0.936490789072863  0.2737257805657414  0.24425583009490748  1.0000
  F   F4        1.0  0.06350921043242894  0.7262742184074668  0.7557441705017209  1.0000
  F   F5        1.0  0.31870608259198  0.28750283706686774  0.036450168911768825  1.0000
  F   F6        1.0  0.6812939169095922  0.71249716301819  0.9635498308461344  1.0000
  F   F7        1.0  0.28933017520223175  0.12466591489852284  0.17369473030909355  1.0000
  F   F8        1.0  0.7106698260853348  0.8753340851973488  0.8263052694504013  1.0000
  F   F9        1.0  0.7645073199795004  0.03402777221860794  0.07664260705910578  1.0000
  F   F10       1.0  0.2354926795220718  0.9659722278664498  0.9233573926987975  1.0000
  F   F11       1.0  0.8789140197743917  0.16623604863066127  0.9355482529108182  1.0000
  F   F12       1.0  0.12108597972718073  0.8337639514543965  0.06445174684708489  1.0000
  I   I1        1.0  0.37317149878653366  0.5381074568918929  0.260608586682029  1.0000
  I   I2        1.0  0.6268285009966255  0.46189254333538954  0.739391413898482  1.0000
