data_image0
_chemical_formula_structural       H104C92O18S4I4
_chemical_formula_sum              "H104 C92 O18 S4 I4"
_cell_length_a       9.687996734671774
_cell_length_b       10.315045568232478
_cell_length_c       25.04035845552535
_cell_angle_alpha    94.4984106069191
_cell_angle_beta     98.21640285848424
_cell_angle_gamma    114.77384177761604

_space_group_name_H-M_alt    "P 1"
_space_group_IT_number       1

loop_
  _space_group_symop_operation_xyz
  'x, y, z'

loop_
  _atom_site_type_symbol
  _atom_site_label
  _atom_site_symmetry_multiplicity
  _atom_site_fract_x
  _atom_site_fract_y
  _atom_site_fract_z
  _atom_site_occupancy
  H   H1        1.0  0.9911891776782538  0.035753103076997986  0.5607102368285155  1.0000
  H   H2        1.0  0.008810822742816669  0.9642468968627512  0.4392897631182918  1.0000
  H   H3        1.0  0.1486388159189043  0.9046905467691366  0.5489736129844762  1.0000
  H   H4        1.0  0.8513611834668324  0.095309453164832  0.4510263869607912  1.0000
  H   H5        1.0  0.7728024207052266  0.5108816439405436  0.5735497988756796  1.0000
  H   H6        1.0  0.22719757971584376  0.4891183559992058  0.42645020107112785  1.0000
  H   H7        1.0  0.5366511361248152  0.504596906328436  0.5866316380867503  1.0000
  H   H8        1.0  0.46334886326092145  0.49540309360553264  0.413368361858517  1.0000
  H   H9        1.0  0.4844221541686158  0.6259361666475409  0.5521455291927576  1.0000
  H   H10       1.0  0.5155778462524546  0.37406383329220844  0.4478544707540498  1.0000
  H   H11       1.0  0.5473687212173128  0.6641727344483112  0.6241162871686342  1.0000
  H   H12       1.0  0.4526312792037576  0.3358272654914382  0.3758837127781732  1.0000
  H   H13       1.0  0.2327609825190915  0.5996209560601649  0.5310807378754754  1.0000
  H   H14       1.0  0.7672390179019789  0.40037904387958445  0.468919262071332  1.0000
  H   H15       1.0  0.2799643621008465  0.7735119412768988  0.568483468496591  1.0000
  H   H16       1.0  0.720035638539521  0.22648805882496806  0.4315165318585734  1.0000
  H   H17       1.0  0.18185207887782937  0.7262766441440377  0.49881672827093576  1.0000
  H   H18       1.0  0.8181479205079073  0.2737233557899309  0.5011832716743315  1.0000
  H   H19       1.0  0.9333882491020326  0.05493917848684395  0.6809892268615599  1.0000
  H   H20       1.0  0.06661175028370389  0.9450608214471247  0.3190107730837073  1.0000
  H   H21       1.0  0.9542111554632238  0.05603045079857799  0.7814778052633682  1.0000
  H   H22       1.0  0.04578884495784646  0.9439695491411711  0.21852219468343917  1.0000
  H   H23       1.0  0.716877097200096  0.9728826401582878  0.8214895803100886  1.0000
  H   H24       1.0  0.2831229021856408  0.027117359775680853  0.17851041963517877  1.0000
  H   H25       1.0  0.4549279433239601  0.8768947545624627  0.7598712316370874  1.0000
  H   H26       1.0  0.5450720560617767  0.12310524537150601  0.24012876830817997  1.0000
  H   H27       1.0  0.4350031043496914  0.8782933482674896  0.6609251742648078  1.0000
  H   H28       1.0  0.5649968950360452  0.12170665166647905  0.3390748256804595  1.0000
  H   H29       1.0  0.6386933863050362  0.835712797485481  0.32460746714335825  1.0000
  H   H30       1.0  0.3613066135529496  0.16428720351683965  0.6753925328035087  1.0000
  H   H31       1.0  0.8140036001747037  0.7501714788203511  0.2851708611905223  1.0000
  H   H32       1.0  0.18599640024636663  0.24982852111939816  0.7148291387562851  1.0000
  H   H33       1.0  0.9196164551518043  0.6123800900901897  0.43688994925145497  1.0000
  H   H34       1.0  0.08038354423393244  0.3876199098437791  0.5631100506938124  1.0000
  H   H35       1.0  0.7406360006639562  0.6923471440364757  0.47551197045210486  1.0000
  H   H36       1.0  0.25936399872178056  0.30765285589749297  0.5244880294931625  1.0000
  H   H37       1.0  0.09882457350867827  0.6658273786156916  0.3610213008428874  1.0000
  H   H38       1.0  0.901175426912392  0.33417262132405773  0.6389786991039199  1.0000
  H   H39       1.0  0.9974033248652105  0.6499322578617057  0.2940073246722066  1.0000
  H   H40       1.0  0.002596675555859916  0.3500677420780436  0.7059926752746009  1.0000
  H   H41       1.0  0.9353590534263159  0.5025361468448789  0.33111447809190353  1.0000
  H   H42       1.0  0.06464094699475469  0.49746385309487046  0.6688855218549039  1.0000
  H   H43       1.0  0.49728425279266975  0.4439132450872909  0.9376643619708033  1.0000
  H   H44       1.0  0.5027157476284007  0.5560867548524583  0.062335637976004145  1.0000
  H   H45       1.0  0.33196344079167733  0.5627114180094898  0.9566661450119333  1.0000
  H   H46       1.0  0.6680365596293931  0.4372885819302596  0.04333385493487406  1.0000
  H   H47       1.0  0.6785146341164108  0.967458044423346  0.9265679483364501  1.0000
  H   H48       1.0  0.3214853663046596  0.03254195551640309  0.0734320516103572  1.0000
  H   H49       1.0  0.9108508029060735  0.9876077641095595  0.9045649649184955  1.0000
  H   H50       1.0  0.0891491975149969  0.012392235830189717  0.095435035028312  1.0000
  H   H51       1.0  0.9176127397081186  0.8323580046608481  0.871060261940866  1.0000
  H   H52       1.0  0.08238725967761802  0.1676419952731205  0.12893973800440134  1.0000
  H   H53       1.0  0.9848954382918224  0.8836746075119425  0.9422635793506261  1.0000
  H   H54       1.0  0.015104562129248045  0.11632539242780685  0.057736420596181254  1.0000
  H   H55       1.0  0.2275158053120078  0.8556211032060256  0.9790494788844464  1.0000
  H   H56       1.0  0.7724841951090627  0.14437889673372373  0.02095052106236102  1.0000
  H   H57       1.0  0.3007750454891364  0.7456820904079867  0.013554058374369437  1.0000
  H   H58       1.0  0.6992249549319339  0.2543179095317624  0.9864459415724379  1.0000
  H   H59       1.0  0.18995949752759902  0.6806067712443647  0.9451260402349184  1.0000
  H   H60       1.0  0.8100405031127683  0.31939322885750226  0.05487396012024603  1.0000
  H   H61       1.0  0.694023405020024  0.6645525754131341  0.8169859829109404  1.0000
  H   H62       1.0  0.3059765943657126  0.33544742452083454  0.1830140170343268  1.0000
  H   H63       1.0  0.6243412523468471  0.6118918109495486  0.7162604725439864  1.0000
  H   H64       1.0  0.3756587482935204  0.3881081891523184  0.2837395278111782  1.0000
  H   H65       1.0  0.6385260844353534  0.39832760124922767  0.6666438056091069  1.0000
  H   H66       1.0  0.3614739149503833  0.601672398684741  0.33335619433616054  1.0000
  H   H67       1.0  0.7169444579677724  0.23825758516277754  0.7184426421717405  1.0000
  H   H68       1.0  0.283055542453298  0.7617424147769716  0.2815573577750669  1.0000
  H   H69       1.0  0.7952192573979645  0.2939032929705153  0.8199811975974238  1.0000
  H   H70       1.0  0.20478074198777219  0.7060967069634533  0.18001880234784345  1.0000
  H   H71       1.0  0.13774777639941163  0.3141308553716348  0.8210595686440164  1.0000
  H   H72       1.0  0.8622522240216588  0.6858691445681145  0.17894043130279097  1.0000
  H   H73       1.0  0.3238860362677427  0.22583974805430815  0.7921594823818268  1.0000
  H   H74       1.0  0.6761139631179939  0.7741602518796605  0.20784051756344052  1.0000
  H   H75       1.0  0.38078010120368194  0.08822596078985516  0.9479908291291876  1.0000
  H   H76       1.0  0.6192198981820547  0.9117740391441134  0.05200917081607956  1.0000
  H   H77       1.0  0.20067431731532076  0.18217576918681191  0.9775779824756813  1.0000
  H   H78       1.0  0.7993256820704159  0.8178242307471567  0.022422017469586015  1.0000
  H   H79       1.0  0.5853509741996558  0.1418458683379343  0.877311889150573  1.0000
  H   H80       1.0  0.4146490251860809  0.8581541315960343  0.12268811079469424  1.0000
  H   H81       1.0  0.48819526457001083  0.11002984232746112  0.8085848538935348  1.0000
  H   H82       1.0  0.5118047358510596  0.8899701576122881  0.19141514605327253  1.0000
  H   H83       1.0  0.4248222596595435  0.9740560780693955  0.8509107541608534  1.0000
  H   H84       1.0  0.575177740761527  0.02594392187035378  0.14908924578595403  1.0000
  H   H85       1.0  0.9995272241979184  0.8709559518224843  0.6998735586796683  1.0000
  H   H86       1.0  0.00047277518781824835  0.12904404811148412  0.30012644126559895  1.0000
  H   H87       1.0  0.11327773719048098  0.7961141737863173  0.6723093631218648  1.0000
  H   H88       1.0  0.8867222632305897  0.20388582615343206  0.32769063682494276  1.0000
  H   H89       1.0  0.20508424196445074  0.9573397886688263  0.7209601708474461  1.0000
  H   H90       1.0  0.7949157574212861  0.042660211265142405  0.2790398290978212  1.0000
  H   H91       1.0  0.08794705271220682  0.8214505341207734  0.7937645819359703  1.0000
  H   H92       1.0  0.9120529477088636  0.17854946581897593  0.2062354180108372  1.0000
  H   H93       1.0  0.9796783637936326  0.6612727404930515  0.7450091384130121  1.0000
  H   H94       1.0  0.020321635592103978  0.33872725944091714  0.25499086153225525  1.0000
  H   H95       1.0  0.10289908130459488  0.5406181462150306  0.7948231438065945  1.0000
  H   H96       1.0  0.8971009191164754  0.45938185372471857  0.20517685614021292  1.0000
  H   H97       1.0  0.22641799696814383  0.6963928278348668  0.8433148258457273  1.0000
  H   H98       1.0  0.7735820034529267  0.30360717210488264  0.15668517410108015  1.0000
  H   H99       1.0  0.353368091043766  0.5306733023387438  0.8329429368455508  1.0000
  H   H100      1.0  0.6466319093773043  0.4693266976010055  0.1670570631012566  1.0000
  H   H101      1.0  0.45975803571742396  0.6949674621441927  0.8098678344536343  1.0000
  H   H102      1.0  0.5402419636683127  0.30503253778977596  0.19013216549163303  1.0000
  H   H103      1.0  0.33667477078579827  0.5382519129815884  0.7615488883621794  1.0000
  H   H104      1.0  0.6633252290721875  0.46174808802073236  0.23845111158468763  1.0000
  C   C1        1.0  0.7943766142798189  0.8473133544438723  0.5737303809067759  1.0000
  C   C2        1.0  0.20562338614125156  0.15268664549587704  0.42626961904003163  1.0000
  C   C3        1.0  0.9436084143484396  0.9210328783691891  0.5639496408011619  1.0000
  C   C4        1.0  0.05639158503729724  0.07896712156477956  0.4360503591441054  1.0000
  C   C5        1.0  0.032885060823971336  0.8466203421299743  0.5573471167203617  1.0000
  C   C6        1.0  0.967114939597099  0.15337965780977514  0.44265288322644575  1.0000
  C   C7        1.0  0.970527520355903  0.6989459274407868  0.5611718324067274  1.0000
  C   C8        1.0  0.029472479029833895  0.30105407249318195  0.4388281675385399  1.0000
  C   C9        1.0  0.8205129956379699  0.6265327973969091  0.5718710062392603  1.0000
  C   C10       1.0  0.17948700374776683  0.37346720253705945  0.428128993706007  1.0000
  C   C11       1.0  0.7285383138451667  0.6989745711174052  0.5777994869586801  1.0000
  C   C12       1.0  0.27146168554057  0.30102542881656347  0.42220051298658723  1.0000
  C   C13       1.0  0.5655652357593144  0.6187701122658708  0.5859799322294584  1.0000
  C   C14       1.0  0.43443476362642225  0.3812298876680979  0.41402006771580885  1.0000
  C   C15       1.0  0.19424570366187266  0.6842094258723465  0.5372906939061353  1.0000
  C   C16       1.0  0.8057542961961132  0.3157905751299742  0.4627093060407316  1.0000
  C   C17       1.0  0.6835405163774623  0.9668396580905775  0.6659310352588222  1.0000
  C   C18       1.0  0.3164594842629052  0.03316034201128947  0.3340689650963423  1.0000
  C   C19       1.0  0.8297488575914433  0.016771262892480383  0.698788194652525  1.0000
  C   C20       1.0  0.17025114179429343  0.9832287370414883  0.30121180529274244  1.0000
  C   C21       1.0  0.8406185458358642  0.016937661971826858  0.7550838735896832  1.0000
  C   C22       1.0  0.15938145458520633  0.9830623379679225  0.24491612635712415  1.0000
  C   C23       1.0  0.7067772254300325  0.9684955131876596  0.7774021876173312  1.0000
  C   C24       1.0  0.2932227752103349  0.031504486914207375  0.22259781273783327  1.0000
  C   C25       1.0  0.5611311284266227  0.9176920173391312  0.7435183311449614  1.0000
  C   C26       1.0  0.43886887095911403  0.08230798259483754  0.256481668800306  1.0000
  C   C27       1.0  0.5484691983394007  0.9164035830570403  0.6872112490829838  1.0000
  C   C28       1.0  0.45153080104633614  0.0835964168769284  0.3127887508622836  1.0000
  C   C29       1.0  0.6798496620289639  0.7696861321698438  0.402274010994084  1.0000
  C   C30       1.0  0.3201503373567729  0.23031386776412485  0.5977259889511833  1.0000
  C   C31       1.0  0.7009371080006191  0.7868266110836832  0.3488709232018132  1.0000
  C   C32       1.0  0.29906289138511766  0.21317338885028547  0.6511290767434542  1.0000
  C   C33       1.0  0.7993035365009039  0.7386204895944775  0.32722617630818573  1.0000
  C   C34       1.0  0.20069646413946368  0.26137951050738956  0.6727738240469788  1.0000
  C   C35       1.0  0.8790539116057886  0.6748946385685104  0.35818050793900885  1.0000
  C   C36       1.0  0.12094608777994824  0.3251053613654584  0.6418194920062585  1.0000
  C   C37       1.0  0.8579063689230163  0.6611838873612366  0.4121746281423684  1.0000
  C   C38       1.0  0.14209363046272047  0.33881611257273214  0.587825371802899  1.0000
  C   C39       1.0  0.7585546924964135  0.7067302968508902  0.4340502688078369  1.0000
  C   C40       1.0  0.24144530792465688  0.29326970308885913  0.5659497311389705  1.0000
  C   C41       1.0  0.9830659326392858  0.6209778764720002  0.33475447828092275  1.0000
  C   C42       1.0  0.016934067781784645  0.3790221234677491  0.6652455216658847  1.0000
  C   C43       1.0  0.6803728228429654  0.6389833839092623  0.9216952290694082  1.0000
  C   C44       1.0  0.31962717676206825  0.36101661618682385  0.07830477128421627  1.0000
  C   C45       1.0  0.5373944570507397  0.5587018874375205  0.9353827151006583  1.0000
  C   C46       1.0  0.462605542807246  0.4412981135648002  0.0646172848462086  1.0000
  C   C47       1.0  0.4440704518020116  0.6259329923151051  0.9464410599653537  1.0000
  C   C48       1.0  0.5559295475837251  0.37406700761886363  0.0535589399799137  1.0000
  C   C49       1.0  0.49543112938900213  0.7733296850272097  0.94274635696094  1.0000
  C   C50       1.0  0.5045688712513653  0.22667031507465726  0.05725364339422448  1.0000
  C   C51       1.0  0.639854452704644  0.8525403318945731  0.9286035334072963  1.0000
  C   C52       1.0  0.3601455477164263  0.1474596680451761  0.07139646653951105  1.0000
  C   C53       1.0  0.736694280784858  0.7878499485544558  0.9188018585301363  1.0000
  C   C54       1.0  0.26330571963621247  0.21215005138529355  0.08119814141667107  1.0000
  C   C55       1.0  0.8955459445830249  0.8777024015083299  0.9083588053796094  1.0000
  C   C56       1.0  0.10445405480271185  0.12229759842563888  0.0916411945656579  1.0000
  C   C57       1.0  0.27433518361772885  0.7767581316965438  0.9737233443736347  1.0000
  C   C58       1.0  0.7256648157680079  0.22324186823742478  0.02627665557163254  1.0000
  C   C59       1.0  0.7503006537156472  0.4831183032254307  0.8234735899843207  1.0000
  C   C60       1.0  0.24969934670542324  0.5168816967143186  0.1765264099624867  1.0000
  C   C61       1.0  0.7018669222473567  0.5727955936309762  0.7955281359239476  1.0000
  C   C62       1.0  0.29813307713837994  0.4272044063029924  0.20447186402131975  1.0000
  C   C63       1.0  0.6615664381748432  0.5418559587700089  0.738591396471977  1.0000
  C   C64       1.0  0.3384335612108935  0.4581440411639598  0.2614086034732903  1.0000
  C   C65       1.0  0.6692845617179798  0.42297810304030264  0.7109684858863254  1.0000
  C   C66       1.0  0.33071543892238786  0.5770218970615645  0.2890315144688391  1.0000
  C   C67       1.0  0.7152632513518641  0.33313457984446443  0.7401667065989398  1.0000
  C   C68       1.0  0.28473674928850334  0.6668654202574025  0.25983329375622477  1.0000
  C   C69       1.0  0.7578805262869905  0.3628783654941077  0.7971205311995259  1.0000
  C   C70       1.0  0.24211947309874607  0.6371216344398609  0.20287946874574148  1.0000
  C   C71       1.0  0.15611600062563652  0.25044179390902466  0.9005338771096948  1.0000
  C   C72       1.0  0.8438839987601002  0.749558206024944  0.0994661228355725  1.0000
  C   C73       1.0  0.1903601743308871  0.2630247166703684  0.8483376684981953  1.0000
  C   C74       1.0  0.8096398260901835  0.7369752832693809  0.15166233144861216  1.0000
  C   C75       1.0  0.2939104345362133  0.2129624205336625  0.8324347953937223  1.0000
  C   C76       1.0  0.706089565884857  0.7870375794060867  0.167565204553085  1.0000
  C   C77       1.0  0.362605633490118  0.1479810475314242  0.8676092065741262  1.0000
  C   C78       1.0  0.6373943669309525  0.8520189524083253  0.1323907933726813  1.0000
  C   C79       1.0  0.32717087363564  0.13731713177834415  0.9200025790003958  1.0000
  C   C80       1.0  0.6728291257500966  0.8626828681556244  0.07999742094487133  1.0000
  C   C81       1.0  0.2256164156346469  0.1886349554322024  0.9366090618392763  1.0000
  C   C82       1.0  0.7743835852586726  0.8113650455758988  0.06339093810913073  1.0000
  C   C83       1.0  0.4708978351989223  0.09100987041664753  0.8500689937587516  1.0000
  C   C84       1.0  0.5291021644061114  0.9089901296794388  0.14993100659487288  1.0000
  C   C85       1.0  0.10298420808416932  0.8521793682430145  0.709568000570799  1.0000
  C   C86       1.0  0.8970157923369011  0.14782063169673473  0.2904319993760084  1.0000
  C   C87       1.0  0.08887571768946417  0.7618012506398211  0.7550623567213571  1.0000
  C   C88       1.0  0.9111242816962725  0.23819874929414755  0.24493764322391018  1.0000
  C   C89       1.0  0.21540452457118714  0.6377768677708898  0.802748857499687  1.0000
  C   C90       1.0  0.7845954748145494  0.36222313216307883  0.19725114244558017  1.0000
  C   C91       1.0  0.34869609219220066  0.5978303634705411  0.8016269562824232  1.0000
  C   C92       1.0  0.6513039082288699  0.40216963646920834  0.19837304366438424  1.0000
  O   O1        1.0  0.04804769408399101  0.6167844946675612  0.5542942058532935  1.0000
  O   O2        1.0  0.9519523063370794  0.383215505272188  0.44570579409351396  1.0000
  O   O3        1.0  0.649264718228313  0.9572605272490503  0.47117250365861935  1.0000
  O   O4        1.0  0.3507352811574237  0.042739472684918324  0.5288274962866479  1.0000
  O   O5        1.0  0.4656339889969482  0.858489658300235  0.3843003185563285  1.0000
  O   O6        1.0  0.5343660103887884  0.14151034163373366  0.6156996813889387  1.0000
  O   O7        1.0  0.45333535925499896  0.7059918300460326  0.45627501858907366  1.0000
  O   O8        1.0  0.5466646411660715  0.29400816989371675  0.5437249813577337  1.0000
  O   O9        1.0  0.4137633098649812  0.8491840752676972  0.9528391355120662  1.0000
  O   O10       1.0  0.5862366897400526  0.15081592482838915  0.047160864841558375  1.0000
  O   O11       1.0  0.04025062123456057  0.4356304372227117  0.8927711474105945  1.0000
  O   O12       1.0  0.9597493794058068  0.5643695628791553  0.10722885294457009  1.0000
  O   O13       1.0  0.06286421150266265  0.34755895814398857  0.9805969975230004  1.0000
  O   O14       1.0  0.9371357881023713  0.6524410419520978  0.01940300283062406  1.0000
  O   O15       1.0  0.8653667805078107  0.18880971648782455  0.9020322612887135  1.0000
  O   O16       1.0  0.1346332188779261  0.8111902834461442  0.09796773865655388  1.0000
  O   O17       1.0  0.21752005798385568  0.7270156215093586  0.7617206604364837  1.0000
  O   O18       1.0  0.7824799424372147  0.2729843784303907  0.23827933951032368  1.0000
  S   S1        1.0  0.5510309959521494  0.8254393995349456  0.4308088927647767  1.0000
  S   S2        1.0  0.4489690044689211  0.1745606004048037  0.5691911071820308  1.0000
  S   S3        1.0  0.020030062648223598  0.30950476780565556  0.9207808344640269  1.0000
  S   S4        1.0  0.9799699377728467  0.6904952321340937  0.07921916548278055  1.0000
  I   I1        1.0  0.6643015892631012  0.9664918597716341  0.5802506898223413  1.0000
  I   I2        1.0  0.3356984111579692  0.033508140168115076  0.41974931012446615  1.0000
  I   I3        1.0  0.8235467254358091  0.5360240127122251  0.9103408372034292  1.0000
  I   I4        1.0  0.17645327394992769  0.46397598722174377  0.0896591627418382  1.0000
