data_image0
_chemical_formula_structural       H32C24N24O20S4
_chemical_formula_sum              "H32 C24 N24 O20 S4"
_cell_length_a       5.359063207741354
_cell_length_b       23.013753274592283
_cell_length_c       8.725824761151202
_cell_angle_alpha    90.0
_cell_angle_beta     100.46174337718875
_cell_angle_gamma    90.0

_space_group_name_H-M_alt    "P 1"
_space_group_IT_number       1

loop_
  _space_group_symop_operation_xyz
  'x, y, z'

loop_
  _atom_site_type_symbol
  _atom_site_label
  _atom_site_symmetry_multiplicity
  _atom_site_fract_x
  _atom_site_fract_y
  _atom_site_fract_z
  _atom_site_occupancy
  H   H1        1.0  0.3934620930089802  0.5594728945936398  0.4177509593836511  1.0000
  H   H2        1.0  0.6065379072842348  0.05947289447615094  0.0822490403135756  1.0000
  H   H3        1.0  0.6065379072932167  0.44052710564133785  0.5822490406878272  1.0000
  H   H4        1.0  0.3934620930179621  0.940527105324304  0.9177509597579027  1.0000
  H   H5        1.0  0.17914698574161272  0.5226811861792285  0.2688816665453911  1.0000
  H   H6        1.0  0.8208530145516024  0.022681186061739748  0.23111833315183558  1.0000
  H   H7        1.0  0.8208530145605841  0.47731881405574905  0.7311183335260872  1.0000
  H   H8        1.0  0.1791469857505946  0.9773188137387151  0.7688816669196427  1.0000
  H   H9        1.0  0.0622561329761565  0.5533793565980437  0.4331279197306203  1.0000
  H   H10       1.0  0.9377438673170585  0.05337935648055493  0.06687207996660635  1.0000
  H   H11       1.0  0.9377438673260404  0.4466206436369338  0.566872080340858  1.0000
  H   H12       1.0  0.062256132985138386  0.9466206437544227  0.9331279201048719  1.0000
  H   H13       1.0  0.7061915504110252  0.5945195803895832  0.25519835359767495  1.0000
  H   H14       1.0  0.29380844988218974  0.09451958027209438  0.24480164609955174  1.0000
  H   H15       1.0  0.29380844989117166  0.4054804198453944  0.7448016464738033  1.0000
  H   H16       1.0  0.7061915504200071  0.9054804199628833  0.7551983539719266  1.0000
  H   H17       1.0  0.8127827323861522  0.5702428171283372  0.08240900222943337  1.0000
  H   H18       1.0  0.1872172679070628  0.07024281701084845  0.4175909974677933  1.0000
  H   H19       1.0  0.18721726757320117  0.42975718310664035  0.9175909966766488  1.0000
  H   H20       1.0  0.8127827323951341  0.9297571827896063  0.5824090026036849  1.0000
  H   H21       1.0  0.7255438062997197  0.6455200493698344  0.09872133115404748  1.0000
  H   H22       1.0  0.2744561939934952  0.14552004925234563  0.4012786685431792  1.0000
  H   H23       1.0  0.2744561940024771  0.35447995043062036  0.9012786689174308  1.0000
  H   H24       1.0  0.7255438063087016  0.8544799505481091  0.5987213315282991  1.0000
  H   H25       1.0  0.18600353318408477  0.752843910477134  0.8344826825147043  1.0000
  H   H26       1.0  0.8139964671270941  0.2528439103596451  0.6655173179310256  1.0000
  H   H27       1.0  0.8139964671181121  0.24715608932332095  0.16551731755677396  1.0000
  H   H28       1.0  0.18600353317510293  0.7471560894408098  0.33448268214045274  1.0000
  H   H29       1.0  0.9167382870290745  0.6718596691079686  0.4760872973846654  1.0000
  H   H30       1.0  0.08326171326414042  0.17185966899047977  0.023912702312561304  1.0000
  H   H31       1.0  0.08326171327312229  0.32814033069248627  0.5239127026868129  1.0000
  H   H32       1.0  0.9167382870380564  0.8281403308099751  0.976087297758917  1.0000
  C   C1        1.0  0.19785886951950327  0.5582701303304737  0.35378558360152373  1.0000
  C   C2        1.0  0.8021411289073991  0.0582701302129849  0.146214416094635  1.0000
  C   C3        1.0  0.8021411307826937  0.44172986946998116  0.6462144164699546  1.0000
  C   C4        1.0  0.19785886952848514  0.94172986958747  0.8537855839757753  1.0000
  C   C5        1.0  0.8070507456681255  0.6069497010477298  0.16174478923333724  1.0000
  C   C6        1.0  0.19294925462508955  0.10694970093024105  0.33825521046388946  1.0000
  C   C7        1.0  0.1929492546340714  0.39305029918724776  0.838255210838141  1.0000
  C   C8        1.0  0.8070507456771074  0.8930502988702139  0.661744789607589  1.0000
  C   C9        1.0  0.4928808630965105  0.6462143194356234  0.7102871179541613  1.0000
  C   C10       1.0  0.5071191372146682  0.14621431931813453  0.7897128824915683  1.0000
  C   C11       1.0  0.5071191372056864  0.3537856807993543  0.28971288211731683  1.0000
  C   C12       1.0  0.49288086308752865  0.8537856804823204  0.21028711757990978  1.0000
  C   C13       1.0  0.4427755288195023  0.7060676181811493  0.716446735889389  1.0000
  C   C14       1.0  0.5572244714916765  0.20606761849818334  0.7835532645563409  1.0000
  C   C15       1.0  0.5572244714826946  0.29393238161930546  0.28355326418208926  1.0000
  C   C16       1.0  0.4427755288105204  0.7939323817367944  0.21644673551513743  1.0000
  C   C17       1.0  0.3277984761605539  0.6220209589108671  0.8030725835606781  1.0000
  C   C18       1.0  0.6722015238077813  0.1220209587933783  0.6969274157196557  1.0000
  C   C19       1.0  0.672201524141643  0.3779790408895877  0.1969274165108002  1.0000
  C   C20       1.0  0.3277984764944155  0.8779790410070765  0.3030725843518226  1.0000
  C   C21       1.0  0.6841022871538905  0.6287025874207967  0.6225509136574683  1.0000
  C   C22       1.0  0.31589771281444473  0.12870258730330783  0.8774490856228655  1.0000
  C   C23       1.0  0.31589771280546286  0.3712974123796582  0.37744908524861376  1.0000
  C   C24       1.0  0.6841022874877521  0.871297412497147  0.12255091444861288  1.0000
  N   N1        1.0  0.7161277702070645  0.7338858333310787  0.5676430024028621  1.0000
  N   N2        1.0  0.2838722297612708  0.23388583321358994  0.9323569968774715  1.0000
  N   N3        1.0  0.28387223009513246  0.2661141669038989  0.4323569976686162  1.0000
  N   N4        1.0  0.7161277705409261  0.766114166586865  0.06764300319400655  1.0000
  N   N5        1.0  0.5476132483640406  0.7507082553576249  0.6493819118733941  1.0000
  N   N6        1.0  0.4523867519471382  0.25070825524013607  0.8506180885723357  1.0000
  N   N7        1.0  0.45238675193815625  0.24929174444282995  0.35061808819808415  1.0000
  N   N8        1.0  0.5476132483550586  0.7492917445603188  0.1493819114991425  1.0000
  N   N9        1.0  0.26223549977079363  0.7132196180325476  0.8064030349573936  1.0000
  N   N10       1.0  0.7377645005403852  0.21321961834958156  0.6935969654883363  1.0000
  N   N11       1.0  0.7377645005314033  0.2867803817679072  0.1935969651140847  1.0000
  N   N12       1.0  0.2622354997618117  0.786780381885396  0.306403034583142  1.0000
  N   N13       1.0  0.7781366131607138  0.6769297186825775  0.551112658913614  1.0000
  N   N14       1.0  0.22186338715046497  0.17692971899961144  0.9488873415321157  1.0000
  N   N15       1.0  0.22186338714148315  0.3230702811178774  0.4488873411578642  1.0000
  N   N16       1.0  0.778136613151732  0.8230702812353663  0.0511126585393625  1.0000
  N   N17       1.0  0.19079937004882583  0.6622767641654932  0.8601993325141816  1.0000
  N   N18       1.0  0.8092006302623529  0.1622767640480044  0.6398006679315483  1.0000
  N   N19       1.0  0.8092006302533711  0.33772323563496165  0.1398006675572967  1.0000
  N   N20       1.0  0.19079937003984399  0.8377232357524504  0.36019933213993  1.0000
  N   N21       1.0  0.2898789691862894  0.5614021774650704  0.8357130074647161  1.0000
  N   N22       1.0  0.7101210311248893  0.06140217778210428  0.6642869929810138  1.0000
  N   N23       1.0  0.7101210311159075  0.4385978223353845  0.16428699260676213  1.0000
  N   N24       1.0  0.28987896731099483  0.9385978224528734  0.3357130070893966  1.0000
  O   O1        1.0  0.11634637771698524  0.6726951421301474  0.366238438707496  1.0000
  O   O2        1.0  0.883653620709917  0.17269514201265856  0.13376156098866268  1.0000
  O   O3        1.0  0.8836536207188989  0.3273048576703075  0.6337615613629143  1.0000
  O   O4        1.0  0.11634637959227982  0.8273048577877964  0.8662384390828155  1.0000
  O   O5        1.0  0.8317598054499634  0.7700261164946356  0.499326268071639  1.0000
  O   O6        1.0  0.1682401948432515  0.2700261168116696  0.0006737316255877554  1.0000
  O   O7        1.0  0.1682401948522334  0.2299738833058192  0.5006737319998393  1.0000
  O   O8        1.0  0.8317598054589455  0.729973883423308  0.9993262684458907  1.0000
  O   O9        1.0  0.7705545586306013  0.5804715272040591  0.6006300832997712  1.0000
  O   O10       1.0  0.2294454416805775  0.08047152752109313  0.8993699171459587  1.0000
  O   O11       1.0  0.22944544167159564  0.4195284725963957  0.3993699167717072  1.0000
  O   O12       1.0  0.7705545586216195  0.9195284727138846  0.10063008292551953  1.0000
  O   O13       1.0  0.1638563366203855  0.548720068357634  0.9369643913150844  1.0000
  O   O14       1.0  0.8361436633479497  0.04872006824014515  0.5630356079652493  1.0000
  O   O15       1.0  0.8361436636818114  0.4512799318773436  0.06303560875639377  1.0000
  O   O16       1.0  0.16385633695424717  0.9512799315603097  0.436964392106229  1.0000
  O   O17       1.0  0.3883279168791485  0.5257704871355611  0.7582541753328618  1.0000
  O   O18       1.0  0.6116720830891867  0.02577048745259511  0.741745823947472  1.0000
  O   O19       1.0  0.6116720834230484  0.47422951266489366  0.24174582473861655  1.0000
  O   O20       1.0  0.3883279172130102  0.9742295127823826  0.25825417612400625  1.0000
  S   S1        1.0  0.12959213034951397  0.6240810757216414  0.24453270863430804  1.0000
  S   S2        1.0  0.870407869943701  0.1240810760386754  0.25546729106291866  1.0000
  S   S3        1.0  0.8704078699526829  0.3759189240788134  0.7554672914371703  1.0000
  S   S4        1.0  0.12959213035849584  0.8759189241963022  0.7445327090085596  1.0000
