data_image0
_chemical_formula_structural       H28C10N2O22I6
_chemical_formula_sum              "H28 C10 N2 O22 I6"
_cell_length_a       6.214273706436219
_cell_length_b       9.363958289489577
_cell_length_c       12.15024200293802
_cell_angle_alpha    88.054591924032
_cell_angle_beta     84.34188822513666
_cell_angle_gamma    85.37233541772879

_space_group_name_H-M_alt    "P 1"
_space_group_IT_number       1

loop_
  _space_group_symop_operation_xyz
  'x, y, z'

loop_
  _atom_site_type_symbol
  _atom_site_label
  _atom_site_symmetry_multiplicity
  _atom_site_fract_x
  _atom_site_fract_y
  _atom_site_fract_z
  _atom_site_occupancy
  H   H1        1.0  0.8755974023959061  0.5947692679452089  0.9167554082969965  1.0000
  H   H2        1.0  0.12440259801005164  0.4052307319866893  0.08324459227911665  1.0000
  H   H3        1.0  0.43166229696145564  0.7709367009129435  0.25290304145880466  1.0000
  H   H4        1.0  0.568337703444502  0.22906329901895478  0.7470969591173084  1.0000
  H   H5        1.0  0.8903550949381671  0.210284954755791  0.4437329486275689  1.0000
  H   H6        1.0  0.1096449056207787  0.7897150452058537  0.5562670511212041  1.0000
  H   H7        1.0  0.849415619339541  0.4011016073247222  0.41679642046515775  1.0000
  H   H8        1.0  0.15058438106641672  0.598898392607176  0.5832035801109554  1.0000
  H   H9        1.0  0.6911332288223706  0.31455579636704745  0.5288164496196559  1.0000
  H   H10       1.0  0.3088667717365753  0.6854442035945971  0.4711835501291171  1.0000
  H   H11       1.0  0.5245382117207393  0.5015305304235093  0.35324098556244193  1.0000
  H   H12       1.0  0.47546178883820656  0.49846946953813526  0.646759014186331  1.0000
  H   H13       1.0  0.33071089890810534  0.3924207900299431  0.30552522631130835  1.0000
  H   H14       1.0  0.6692890999168737  0.6075792110073516  0.6944747734402267  1.0000
  H   H15       1.0  0.34802776104650696  0.4062313412956878  0.45182080981602796  1.0000
  H   H16       1.0  0.651972239512439  0.5937686586659568  0.548179189932745  1.0000
  H   H17       1.0  0.7972802525019983  0.35969825645050413  0.22992331493326354  1.0000
  H   H18       1.0  0.20271974805694762  0.6403017435111404  0.7700766848155095  1.0000
  H   H19       1.0  0.8405947556789145  0.16990153051327087  0.2554022951973952  1.0000
  H   H20       1.0  0.15940524488003127  0.8300984694483738  0.7445977045513777  1.0000
  H   H21       1.0  0.6000269097056735  0.24110968677784608  0.19666318285784012  1.0000
  H   H22       1.0  0.3999730890902938  0.7588903131583383  0.8033368177197595  1.0000
  H   H23       1.0  0.45078183265357863  0.15731879681303604  0.4961634556805678  1.0000
  H   H24       1.0  0.5492181679053673  0.8426812031486086  0.5038365440682052  1.0000
  H   H25       1.0  0.6298252312912743  0.05518288092200952  0.3993710958676441  1.0000
  H   H26       1.0  0.3701747692676716  0.9448171190396352  0.6006289038811289  1.0000
  H   H27       1.0  0.09077526842150636  0.9641903603808553  0.36855997197887913  1.0000
  H   H28       1.0  0.9092247304034726  0.03580964065643965  0.631440027772656  1.0000
  C   C1        1.0  0.7725371482028203  0.3035657694043445  0.44527280660596835  1.0000
  C   C2        1.0  0.22746285235612573  0.6964342305573001  0.5547271931428046  1.0000
  C   C3        1.0  0.4388918050784663  0.40435260023034136  0.36967577372153804  1.0000
  C   C4        1.0  0.561108193717501  0.5956473997058432  0.6303242268560616  1.0000
  C   C5        1.0  0.7196192166568613  0.2610960184550891  0.25319479023797725  1.0000
  C   C6        1.0  0.280380782139106  0.7389039814810954  0.7468052103396223  1.0000
  C   C7        1.0  0.5032838812947997  0.14451575357719695  0.4080435344127684  1.0000
  C   C8        1.0  0.4967161176541557  0.8554842463887341  0.5919564653374909  1.0000
  C   C9        1.0  0.314900454854712  0.10448391114854584  0.34876486233382287  1.0000
  C   C10       1.0  0.6850995439412553  0.8955160887876386  0.6512351382437767  1.0000
  N   N1        1.0  0.6057494147583046  0.2785237335693481  0.3674689379714274  1.0000
  N   N2        1.0  0.39425058564765314  0.7214762663625501  0.6325310626046857  1.0000
  O   O1        1.0  0.056530703354324065  0.26220267195831704  0.03939692803227342  1.0000
  O   O2        1.0  0.9434692970516337  0.7377973279735812  0.9606030725438397  1.0000
  O   O3        1.0  0.15500439775619215  0.032275472280272846  0.9043752684428933  1.0000
  O   O4        1.0  0.8449956026787773  0.9677245287527358  0.09562473130715538  1.0000
  O   O5        1.0  0.49174396243078  0.15620750358918614  0.9976694723907876  1.0000
  O   O6        1.0  0.5082560365181754  0.8437924963767447  0.0023305273594717677  1.0000
  O   O7        1.0  0.8687629323044261  0.503365671215791  0.8732157634357265  1.0000
  O   O8        1.0  0.13123706664452953  0.4966343287501399  0.12678423631453287  1.0000
  O   O9        1.0  0.42726802060193414  0.4495916328266296  0.8979469596273404  1.0000
  O   O10       1.0  0.5727319798040236  0.5504083671052685  0.10205304094877277  1.0000
  O   O11       1.0  0.7650819544798033  0.25048015315214933  0.8201498823948995  1.0000
  O   O12       1.0  0.2349180460791425  0.7495198468094955  0.1798501173538736  1.0000
  O   O13       1.0  0.5329299508263129  0.7878745023587848  0.31124792978572297  1.0000
  O   O14       1.0  0.4670700481226426  0.21212549760714622  0.6887520699645364  1.0000
  O   O15       1.0  0.896826041835604  0.9126031286397682  0.33162813064744173  1.0000
  O   O16       1.0  0.10317395711335157  0.08739687132616264  0.6683718691028175  1.0000
  O   O17       1.0  0.8934986001617541  0.6177173571541571  0.3676304495316465  1.0000
  O   O18       1.0  0.10650140039719203  0.38228264280748747  0.6323695502171265  1.0000
  O   O19       1.0  0.26816718712816284  0.154233812732445  0.25794761314432596  1.0000
  O   O20       1.0  0.7318328134307831  0.8457661872291997  0.742052386604447  1.0000
  O   O21       1.0  0.21110997868357245  0.007556733699698946  0.4087652726455063  1.0000
  O   O22       1.0  0.7888900202653831  0.9924432662662319  0.5912347271047531  1.0000
  I   I1        1.0  0.22016328284773487  0.0898474128574881  0.03879073633357903  1.0000
  I   I2        1.0  0.7798367159482325  0.9101525870786966  0.9612092642440205  1.0000
  I   I3        1.0  0.681061762697674  0.3640427626052731  0.9404124340891202  1.0000
  I   I4        1.0  0.3189382377082835  0.6359572373266251  0.059587566486992934  1.0000
  I   I5        1.0  0.8392685189351591  0.7525014187508284  0.26318804523523875  1.0000
  I   I6        1.0  0.1607314814707986  0.24749858118106982  0.7368119553408744  1.0000
