data_image0
_chemical_formula_structural       H12C8N8O6S2
_chemical_formula_sum              "H12 C8 N8 O6 S2"
_cell_length_a       10.779985205323651
_cell_length_b       6.077245189613349
_cell_length_c       6.136228877836231
_cell_angle_alpha    90.0
_cell_angle_beta     114.39286889241507
_cell_angle_gamma    90.0

_space_group_name_H-M_alt    "P 1"
_space_group_IT_number       1

loop_
  _space_group_symop_operation_xyz
  'x, y, z'

loop_
  _atom_site_type_symbol
  _atom_site_label
  _atom_site_symmetry_multiplicity
  _atom_site_fract_x
  _atom_site_fract_y
  _atom_site_fract_z
  _atom_site_occupancy
  H   H1        1.0  0.7014375899875891  0.2500000004272763  0.054652970106207975  1.0000
  H   H2        1.0  0.2985624106891829  0.7499999996363466  0.9453470313061034  1.0000
  H   H3        1.0  0.47076530341891515  0.2500000004272763  0.4565081359086369  1.0000
  H   H4        1.0  0.529234697257857  0.7499999996363466  0.5434918655036745  1.0000
  H   H5        1.0  0.9952073570950535  0.2500000004272763  0.2980802464253626  1.0000
  H   H6        1.0  0.004792643581718551  0.7499999996363466  0.7019197549869487  1.0000
  H   H7        1.0  0.9375711669710326  0.2500000004272763  0.987300843652886  1.0000
  H   H8        1.0  0.062428833706657805  0.7499999996363466  0.012699156130426895  1.0000
  H   H9        1.0  0.27261485489006954  0.2500000004272763  0.0018855280784733355  1.0000
  H   H10       1.0  0.7273851447681354  0.7499999996363466  0.9981144725933644  1.0000
  H   H11       1.0  0.09627841160078737  0.2500000004272763  0.8200430689998157  1.0000
  H   H12       1.0  0.9037215880574176  0.7499999996363466  0.17995693167202192  1.0000
  C   C1        1.0  0.5524479926010055  0.2500000004272763  0.19503903956373686  1.0000
  C   C2        1.0  0.44755200807576645  0.7499999996363466  0.8049609618485745  1.0000
  C   C3        1.0  0.6930877920380624  0.2500000004272763  0.59039913161267  1.0000
  C   C4        1.0  0.3069122086396281  0.7499999996363466  0.409600868170643  1.0000
  C   C5        1.0  0.778604485390073  0.2500000004272763  0.44157097166626014  1.0000
  C   C6        1.0  0.22139551426813203  0.7499999996363466  0.5584290290055777  1.0000
  C   C7        1.0  0.14751172231058496  0.2500000004272763  0.18096026144296318  1.0000
  C   C8        1.0  0.85248827734762  0.7499999996363466  0.8190397392288746  1.0000
  N   N1        1.0  0.683969492184043  0.2500000004272763  0.20851684367921697  1.0000
  N   N2        1.0  0.31603050747416195  0.7499999996363466  0.7914831569926207  1.0000
  N   N3        1.0  0.560260152180842  0.2500000004272763  0.42713700420953465  1.0000
  N   N4        1.0  0.43973984747736294  0.7499999996363466  0.5728629964623031  1.0000
  N   N5        1.0  0.1742995920013898  0.2500000004272763  0.986650535174338  1.0000
  N   N6        1.0  0.8257004076568152  0.7499999996363466  0.013349465497499692  1.0000
  N   N7        1.0  0.01769588613908275  0.2500000004272763  0.15188439763456166  1.0000
  N   N8        1.0  0.9823041145376893  0.7499999996363466  0.8481156037777496  1.0000
  O   O1        1.0  0.44748529977186424  0.2500000004272763  0.010322121329491408  1.0000
  O   O2        1.0  0.5525146998863407  0.7499999996363466  0.9896778793423464  1.0000
  O   O3        1.0  0.7396266015032076  0.2500000004272763  0.810420793704416  1.0000
  O   O4        1.0  0.26037339815499744  0.7499999996363466  0.18957920696742178  1.0000
  O   O5        1.0  0.9035253919861457  0.2500000004272763  0.519522136904658  1.0000
  O   O6        1.0  0.0964746086915448  0.7499999996363466  0.48047786287865496  1.0000
  S   S1        1.0  0.27256339453006895  0.2500000004272763  0.4677557767519753  1.0000
  S   S2        1.0  0.7274366051281361  0.7499999996363466  0.5322442239198624  1.0000
