data_image0
_chemical_formula_structural       H58C46N2O10
_chemical_formula_sum              "H58 C46 N2 O10"
_cell_length_a       9.12328713312264
_cell_length_b       10.451705296017158
_cell_length_c       11.53351404288239
_cell_angle_alpha    93.40325259721271
_cell_angle_beta     93.6490339263733
_cell_angle_gamma    109.02483134884888

_space_group_name_H-M_alt    "P 1"
_space_group_IT_number       1

loop_
  _space_group_symop_operation_xyz
  'x, y, z'

loop_
  _atom_site_type_symbol
  _atom_site_label
  _atom_site_symmetry_multiplicity
  _atom_site_fract_x
  _atom_site_fract_y
  _atom_site_fract_z
  _atom_site_occupancy
  H   H1        1.0  0.17792116341493905  0.9950560396700608  0.5470824911893716  1.0000
  H   H2        1.0  0.8220788361637057  0.0049439595343468146  0.45291750868923386  1.0000
  H   H3        1.0  0.21470833880860093  0.8814719968661477  0.43933876896044055  1.0000
  H   H4        1.0  0.7852916611610404  0.11852800335394384  0.560661230999564  1.0000
  H   H5        1.0  0.36406511833755884  0.033052494206434  0.48913974638181196  1.0000
  H   H6        1.0  0.6359348812410859  0.9669475049979737  0.5108602534967933  1.0000
  H   H7        1.0  0.45818409343049205  0.7755231298113517  0.6554180317051325  1.0000
  H   H8        1.0  0.5418159065391492  0.22447687040873968  0.34458196825487214  1.0000
  H   H9        1.0  0.523502375977167  0.12537686595247574  0.14348023912890817  1.0000
  H   H10       1.0  0.47649762360147796  0.874623133251932  0.8565197607496972  1.0000
  H   H11       1.0  0.339467449032869  0.292598616793241  0.037623326307899364  1.0000
  H   H12       1.0  0.6605325509367722  0.7074013834268504  0.9623766736521051  1.0000
  H   H13       1.0  0.5609642297321523  0.5064524348708346  0.1055875214696461  1.0000
  H   H14       1.0  0.439035770237489  0.49354756534925687  0.8944124784903585  1.0000
  H   H15       1.0  0.7345921015615787  0.3350635459597677  0.2179462635506442  1.0000
  H   H16       1.0  0.2654078984080625  0.6649364542603238  0.7820537364093604  1.0000
  H   H17       1.0  0.5938651618376265  0.7348884238250862  0.47901212985690017  1.0000
  H   H18       1.0  0.40613483883731727  0.26511157537403796  0.5209878700739933  1.0000
  H   H19       1.0  0.8611556841192877  0.7906981130131492  0.5715392366947247  1.0000
  H   H20       1.0  0.13884431585035364  0.20930188720694232  0.42846076326528  1.0000
  H   H21       1.0  0.03196361930948122  0.6602429751891803  0.5049782606706081  1.0000
  H   H22       1.0  0.9680363806601601  0.3397570250309111  0.49502173928939636  1.0000
  H   H23       1.0  0.929865864582427  0.47582309224893776  0.3455551784668748  1.0000
  H   H24       1.0  0.07013413538733608  0.5241769079628482  0.6544448223596948  1.0000
  H   H25       1.0  0.3403614935893166  0.5971895318007701  0.4295443284007973  1.0000
  H   H26       1.0  0.6596385059893282  0.4028104674036376  0.5704556714778081  1.0000
  H   H27       1.0  0.260575110752545  0.5752276397500341  0.2799437389726306  1.0000
  H   H28       1.0  0.7394248892170963  0.42477236047005734  0.7200562609873741  1.0000
  H   H29       1.0  0.4195367584875672  0.7243418284400805  0.33096678756726317  1.0000
  H   H30       1.0  0.5804632414820741  0.275658171780011  0.6690332123927415  1.0000
  H   H31       1.0  0.8880451109756184  0.49015814476342034  0.07375770352057752  1.0000
  H   H32       1.0  0.11195488899402274  0.509841855456671  0.926242296439427  1.0000
  H   H33       1.0  0.8457368785729195  0.6324046327028017  0.1373075996841733  1.0000
  H   H34       1.0  0.15426312139672185  0.3675953675172898  0.8626924002758314  1.0000
  H   H35       1.0  0.7951460507798821  0.5790547119551251  0.9868783881999784  1.0000
  H   H36       1.0  0.204853950286058  0.4209452882596827  0.013121611812314336  1.0000
  H   H37       1.0  0.35632043924477685  0.16275252595468537  0.8449796768701464  1.0000
  H   H38       1.0  0.6436795607248644  0.8372474742654062  0.1550203230898582  1.0000
  H   H39       1.0  0.23206704921665755  0.06277767398732215  0.9419411399042593  1.0000
  H   H40       1.0  0.7679329507531056  0.9372223262244639  0.05805886092231023  1.0000
  H   H41       1.0  0.41952360949372447  0.05083332885355892  0.9278933739801454  1.0000
  H   H42       1.0  0.5804763904759168  0.9491666713665324  0.07210662597985928  1.0000
  H   H43       1.0  0.3727490659078464  0.9088583945602003  0.17117976077036054  1.0000
  H   H44       1.0  0.6272509351580937  0.09114160565460748  0.8288202392419323  1.0000
  H   H45       1.0  0.12843210768128407  0.7409419794016205  0.21972021091294616  1.0000
  H   H46       1.0  0.8715678918973606  0.2590580198027871  0.7802797889656592  1.0000
  H   H47       1.0  0.9018290430232596  0.8166174927963952  0.26258237380568306  1.0000
  H   H48       1.0  0.09817095694638162  0.1833825074236962  0.7374176261543215  1.0000
  H   H49       1.0  0.9175119572732963  0.0546339174228098  0.2453231183210554  1.0000
  H   H50       1.0  0.08248804269634498  0.9453660827972817  0.7546768816389492  1.0000
  H   H51       1.0  0.9511618463103763  0.23192656431277958  0.1139346956990131  1.0000
  H   H52       1.0  0.04883815365926498  0.7680734359073119  0.8860653042609915  1.0000
  H   H53       1.0  0.07553220636479949  0.39826236520250635  0.17149356466653864  1.0000
  H   H54       1.0  0.9244677936048418  0.601737635017585  0.828506435293466  1.0000
  H   H55       1.0  0.98218299555912  0.27380985482896425  0.26808778297925445  1.0000
  H   H56       1.0  0.01781700441052132  0.7261901453911273  0.7319122169807502  1.0000
  H   H57       1.0  0.42146002326949  0.33603904448929706  0.2578184399366549  1.0000
  H   H58       1.0  0.5785399777964502  0.6639609557255108  0.7421815600756378  1.0000
  C   C1        1.0  0.2646921101706678  0.9522511518987367  0.5167915960727021  1.0000
  C   C2        1.0  0.7353078908952724  0.04774884831607127  0.4832084039395908  1.0000
  C   C3        1.0  0.3198248562525363  0.8823003289400538  0.6117254922045218  1.0000
  C   C4        1.0  0.6801751437171049  0.11769967128003767  0.38827450775548283  1.0000
  C   C5        1.0  0.4374002359686629  0.1782925519454388  0.14838675273490642  1.0000
  C   C6        1.0  0.5625997640009783  0.8217074482746527  0.8516132472250982  1.0000
  C   C7        1.0  0.4193298117988076  0.234145016949545  0.027657691566016093  1.0000
  C   C8        1.0  0.5806701881708336  0.7658549832705464  0.9723423083939885  1.0000
  C   C9        1.0  0.5761255457488085  0.3330359466148615  0.006899364538887992  1.0000
  C   C10       1.0  0.4238744542208328  0.66696405360523  0.9931006354211165  1.0000
  C   C11       1.0  0.6439680837296978  0.4500870354784462  0.10034602932719221  1.0000
  C   C12       1.0  0.3560319162399434  0.5499129647416452  0.8996539706328124  1.0000
  C   C13       1.0  0.6504437934167525  0.39027796652628266  0.22053548118569477  1.0000
  C   C14       1.0  0.34955620655288877  0.6097220336938088  0.7794645187743098  1.0000
  C   C15       1.0  0.7062903990603014  0.5004582884139636  0.31988430699375897  1.0000
  C   C16       1.0  0.29370960090933984  0.4995417118061279  0.6801156929662456  1.0000
  C   C17       1.0  0.6119039763657402  0.5756309412216435  0.3582711020405325  1.0000
  C   C18       1.0  0.38809602360390105  0.42436905899844796  0.6417288979194721  1.0000
  C   C19       1.0  0.6677041430000741  0.6784193549034666  0.44938363900348566  1.0000
  C   C20       1.0  0.3322958569695672  0.3215806453166249  0.550616360956519  1.0000
  C   C21       1.0  0.8187377429637129  0.7089981499425027  0.5018252962207417  1.0000
  C   C22       1.0  0.18126225661493192  0.29100184926190514  0.4981747036578637  1.0000
  C   C23       1.0  0.9139063628829377  0.6367356423832745  0.46486196512019007  1.0000
  C   C24       1.0  0.08609363708670349  0.36326435783681693  0.5351380348398145  1.0000
  C   C25       1.0  0.8563762176928637  0.5331976943650183  0.37482729987493507  1.0000
  C   C26       1.0  0.1436237822767777  0.46680230585507326  0.6251727000850695  1.0000
  C   C27       1.0  0.36663167795069557  0.614946306417553  0.33906681044475184  1.0000
  C   C28       1.0  0.6333683220189458  0.38505369380253857  0.6609331895152528  1.0000
  C   C29       1.0  0.8024569331247532  0.54363888249041  0.07379198326341355  1.0000
  C   C30       1.0  0.19754306684488804  0.45636111772968135  0.9262080166965911  1.0000
  C   C31       1.0  0.3530632112428759  0.1213685736813091  0.9303199665941665  1.0000
  C   C32       1.0  0.6469367887267654  0.8786314265387823  0.06968003336583813  1.0000
  C   C33       1.0  0.28723367911241904  0.07790968032157713  0.1796821471669571  1.0000
  C   C34       1.0  0.7127663208572221  0.9220903198985143  0.8203178527930475  1.0000
  C   C35       1.0  0.2737490091269263  0.9418141002692978  0.18768879708685793  1.0000
  C   C36       1.0  0.7262509908427149  0.058185899950793644  0.8123112028731467  1.0000
  C   C37       1.0  0.13558770877798698  0.8465757394989001  0.21537451449069037  1.0000
  C   C38       1.0  0.8644122908006578  0.15342425970550758  0.784625485387915  1.0000
  C   C39       1.0  0.009184746188215394  0.8885126243067107  0.2374306953356229  1.0000
  C   C40       1.0  0.9908152544867284  0.11148737489241345  0.7625693045952706  1.0000
  C   C41       1.0  0.018026089124150924  0.0236012539659748  0.22876902171178776  1.0000
  C   C42       1.0  0.9819739108454905  0.9763987462541167  0.7712309782482168  1.0000
  C   C43       1.0  0.1560646525638293  0.11724645253542208  0.1989366133514668  1.0000
  C   C44       1.0  0.8439353474058119  0.8827535476846692  0.8010633866085377  1.0000
  C   C45       1.0  0.03671901998315447  0.2900739113067433  0.18570608969725863  1.0000
  C   C46       1.0  0.9632809799864869  0.7099260889133482  0.814293910262746  1.0000
  N   N1        1.0  0.5015015357261012  0.2882533912601783  0.24318842930322546  1.0000
  N   N2        1.0  0.49849846424353994  0.711746608959913  0.7568115706567792  1.0000
  O   O1        1.0  0.27434836228141674  0.879901578201129  0.710945751367614  1.0000
  O   O2        1.0  0.7256516387845234  0.12009842201367892  0.28905424864467877  1.0000
  O   O3        1.0  0.42136871497995015  0.8229252074899909  0.5806047573254469  1.0000
  O   O4        1.0  0.5786312849896912  0.17707479273010066  0.41939524263455774  1.0000
  O   O5        1.0  0.6473768592445487  0.31782802957454565  0.9229737981595709  1.0000
  O   O6        1.0  0.3526231407252144  0.6821719706372401  0.07702620266699862  1.0000
  O   O7        1.0  0.4665182506677165  0.5421448554776129  0.3012464266035674  1.0000
  O   O8        1.0  0.5334817493019247  0.45785514474247846  0.6987535733564372  1.0000
  O   O9        1.0  0.17394598261942873  0.25183344185126616  0.18788181843577073  1.0000
  O   O10       1.0  0.8260540184465114  0.7481665583635417  0.8121181815765222  1.0000
