data_image0
_chemical_formula_structural       H56C28N20S8Br4
_chemical_formula_sum              "H56 C28 N20 S8 Br4"
_cell_length_a       14.24706364145141
_cell_length_b       10.925039076736725
_cell_length_c       8.244789930466506
_cell_angle_alpha    90.0
_cell_angle_beta     90.0
_cell_angle_gamma    90.0

_space_group_name_H-M_alt    "P 1"
_space_group_IT_number       1

loop_
  _space_group_symop_operation_xyz
  'x, y, z'

loop_
  _atom_site_type_symbol
  _atom_site_label
  _atom_site_symmetry_multiplicity
  _atom_site_fract_x
  _atom_site_fract_y
  _atom_site_fract_z
  _atom_site_occupancy
  H   H1        1.0  0.5885463005586588  0.8883650467361971  0.370937302926159  1.0000
  H   H2        1.0  0.08854630060959587  0.3883650465868486  0.12906269643910642  1.0000
  H   H3        1.0  0.08854630060959587  0.1116349535624998  0.629062697017259  1.0000
  H   H4        1.0  0.5885463005586588  0.6116349537118483  0.8709373035043116  1.0000
  H   H5        1.0  0.5540442071890581  0.6803455692737124  0.4091989472688853  1.0000
  H   H6        1.0  0.05404420723999516  0.18034557003969245  0.09080105209638017  1.0000
  H   H7        1.0  0.05404420723999516  0.319654430109656  0.5908010526745329  1.0000
  H   H8        1.0  0.5540442071890581  0.8196544302590043  0.9091989478470379  1.0000
  H   H9        1.0  0.7305362243008618  0.9829580942064385  0.43737276757953286  1.0000
  H   H10       1.0  0.23053622435179896  0.48295809497241865  0.06262723299861978  1.0000
  H   H11       1.0  0.23053622435179896  0.017041905176929804  0.5626272323638852  1.0000
  H   H12       1.0  0.7305362243008618  0.5170419053262783  0.9373727669447983  1.0000
  H   H13       1.0  0.8333449789230025  0.630654247697025  0.6053880671423708  1.0000
  H   H14       1.0  0.33334497897393967  0.1306542475476766  0.8946119333791999  1.0000
  H   H15       1.0  0.33334497897393967  0.36934575168634337  0.3946119328010473  1.0000
  H   H16       1.0  0.8333449789230025  0.8693457518356918  0.10538806656421819  1.0000
  H   H17       1.0  0.8612686318252416  0.8565388209847138  0.562762375892028  1.0000
  H   H18       1.0  0.36126863187617875  0.3565388208353653  0.9372376246295425  1.0000
  H   H19       1.0  0.36126863187617875  0.14346117931398314  0.43723762405138994  1.0000
  H   H20       1.0  0.8612686318252416  0.6434611794633316  0.06276237531387545  1.0000
  H   H21       1.0  0.6777555490035208  0.5414142346268644  0.5310972853073335  1.0000
  H   H22       1.0  0.17775554905445792  0.041414234477516035  0.9689027152142372  1.0000
  H   H23       1.0  0.17775554905445792  0.45858576567183246  0.4689027146360846  1.0000
  H   H24       1.0  0.6777555490035208  0.9585857658211808  0.031097284729180833  1.0000
  H   H25       1.0  0.7959282772491906  0.18752797272483124  0.6215188116636536  1.0000
  H   H26       1.0  0.2959282773001278  0.6875279728741797  0.8784811876450298  1.0000
  H   H27       1.0  0.2959282773001278  0.8124720275738656  0.3784811882797645  1.0000
  H   H28       1.0  0.7959282772491906  0.3124720274245172  0.12151881229838814  1.0000
  H   H29       1.0  0.8847882509153873  0.10863560227690351  0.510316115447945  1.0000
  H   H30       1.0  0.3847882509663244  0.6086356015109234  0.9896838838607386  1.0000
  H   H31       1.0  0.3847882509663244  0.8913643980217933  0.48968388449547307  1.0000
  H   H32       1.0  0.8847882509153873  0.3913643978724449  0.010316116082679558  1.0000
  H   H33       1.0  0.784794773953922  0.16844723914247908  0.8932496197126629  1.0000
  H   H34       1.0  0.28479477400485914  0.6684472392918275  0.6067503808089076  1.0000
  H   H35       1.0  0.28479477400485914  0.8315527602408893  0.10675038023075503  1.0000
  H   H36       1.0  0.784794773953922  0.33155276100686937  0.3932496191345104  1.0000
  H   H37       1.0  0.8722966565434631  0.0902380030932092  0.005710588189277974  1.0000
  H   H38       1.0  0.3722966565944002  0.5902380032425577  0.4942894123888746  1.0000
  H   H39       1.0  0.3722966565944002  0.9097619962901591  0.9942894117541401  1.0000
  H   H40       1.0  0.8722966565434631  0.4097619961408107  0.5057105875545433  1.0000
  H   H41       1.0  0.08699662830127797  0.6871322726876965  0.623056562183306  1.0000
  H   H42       1.0  0.5869966282503408  0.18713227345367667  0.8769434383382647  1.0000
  H   H43       1.0  0.5869966282503408  0.3128677266956718  0.376943437760112  1.0000
  H   H44       1.0  0.08699662830127797  0.8128677268450202  0.1230565616051534  1.0000
  H   H45       1.0  0.0941894409803656  0.6819126163002492  0.8919148191788939  1.0000
  H   H46       1.0  0.5941894409294285  0.18191261615090085  0.6080851813426766  1.0000
  H   H47       1.0  0.5941894409294285  0.3180873839984476  0.10808518076452404  1.0000
  H   H48       1.0  0.0941894409803656  0.8180873832324675  0.3919148186007414  1.0000
  H   H49       1.0  0.018618129087895157  0.5803058831615363  0.5108373343069144  1.0000
  H   H50       1.0  0.518618129036958  0.08030588301218784  0.9891626650017691  1.0000
  H   H51       1.0  0.518618129036958  0.41969411622183206  0.4891626656365037  1.0000
  H   H52       1.0  0.018618129087895157  0.9196941163711806  0.01083733494164894  1.0000
  H   H53       1.0  0.0267083947665468  0.5760567349732384  0.007392865132289815  1.0000
  H   H54       1.0  0.5267083947156097  0.07605673482388989  0.4926071354458628  1.0000
  H   H55       1.0  0.5267083947156097  0.42394326441013  0.9926071348111282  1.0000
  H   H56       1.0  0.0267083947665468  0.9239432645594785  0.5073928644975553  1.0000
  C   C1        1.0  0.62315078485152  0.7132630844856963  0.44692604069677083  1.0000
  C   C2        1.0  0.12315078490245712  0.2132630852516764  0.0530739598813818  1.0000
  C   C3        1.0  0.12315078490245712  0.28673691489767206  0.5530739592466473  1.0000
  C   C4        1.0  0.62315078485152  0.7867369150470206  0.9469260412749234  1.0000
  C   C5        1.0  0.7238982663061458  0.8855466101353097  0.4640693774211793  1.0000
  C   C6        1.0  0.223898266357083  0.38554660998596124  0.03593062315697328  1.0000
  C   C7        1.0  0.223898266357083  0.11445339016338722  0.5359306225222388  1.0000
  C   C8        1.0  0.7238982663061458  0.6144533903127356  0.9640693767864448  1.0000
  C   C9        1.0  0.7788112483555683  0.6891112349456932  0.5537859931552743  1.0000
  C   C10       1.0  0.2788112484065054  0.18911123571167324  0.9462140061534091  1.0000
  C   C11       1.0  0.2788112484065054  0.31088876443767516  0.44621400678814366  1.0000
  C   C12       1.0  0.7788112483555683  0.8108887645870236  0.05378599379000897  1.0000
  C   C13       1.0  0.7946435886662921  0.8141223676663228  0.530438834328499  1.0000
  C   C14       1.0  0.2946435880153303  0.3141223684323029  0.9695611649801844  1.0000
  C   C15       1.0  0.2946435880153303  0.18587763171704552  0.469561165614919  1.0000
  C   C16       1.0  0.7946435886662921  0.6858776318663939  0.030438834963233574  1.0000
  C   C17       1.0  0.6921325768006067  0.6382612319298745  0.5117558877283928  1.0000
  C   C18       1.0  0.19213257685154392  0.138261231780526  0.9882441127931779  1.0000
  C   C19       1.0  0.19213257685154392  0.36173876836882246  0.4882441122150254  1.0000
  C   C20       1.0  0.6921325768006067  0.861738768518171  0.011755887150240079  1.0000
  C   C21       1.0  0.8879808905458906  0.08798514250139594  0.7578918204949873  1.0000
  C   C22       1.0  0.3879808905968276  0.5879851426507444  0.7421081788136962  1.0000
  C   C23       1.0  0.3879808905968276  0.912014857797301  0.24210817944843077  1.0000
  C   C24       1.0  0.8879808905458906  0.41201485764795254  0.25789182112972187  1.0000
  C   C25       1.0  0.0125778402139393  0.5645262645451521  0.7593329985116755  1.0000
  C   C26       1.0  0.5125778401630021  0.06452626439580361  0.7406670020098953  1.0000
  C   C27       1.0  0.5125778401630021  0.4354737357535448  0.24066700143174263  1.0000
  C   C28       1.0  0.0125778402139393  0.9354737359028933  0.2593329979335228  1.0000
  N   N1        1.0  0.6411584842944814  0.8333302431280077  0.4246114709440409  1.0000
  N   N2        1.0  0.14115848434541853  0.3333302429786593  0.0753885296341117  1.0000
  N   N3        1.0  0.14115848434541853  0.16666975717068916  0.5753885289993772  1.0000
  N   N4        1.0  0.6411584842944814  0.6666697573200376  0.9246114703093062  1.0000
  N   N5        1.0  0.8524962150560506  0.12937332855949663  0.6185626866191649  1.0000
  N   N6        1.0  0.35249621510698775  0.629373328708845  0.8814373126895185  1.0000
  N   N7        1.0  0.35249621510698775  0.8706266717392003  0.3814373133242531  1.0000
  N   N8        1.0  0.8524962150560506  0.3706266715898518  0.11856268725389947  1.0000
  N   N9        1.0  0.8427432867687279  0.11302523508857164  0.8959619944594548  1.0000
  N   N10       1.0  0.34274328681966487  0.6130252343225915  0.604038006062116  1.0000
  N   N11       1.0  0.34274328681966487  0.8869747652101252  0.10403800548396333  1.0000
  N   N12       1.0  0.8427432867687279  0.38697476506077677  0.3959619938813021  1.0000
  N   N13       1.0  0.039320731211595086  0.6168828617144918  0.6197897500234871  1.0000
  N   N14       1.0  0.539320731160658  0.11688286156514334  0.8802102504980834  1.0000
  N   N15       1.0  0.539320731160658  0.38311713858420515  0.3802102499199309  1.0000
  N   N16       1.0  0.039320731211595086  0.883117137818225  0.11978974944533455  1.0000
  N   N17       1.0  0.047743432409536476  0.6102647133040243  0.8973787849536352  1.0000
  N   N18       1.0  0.5477434330604983  0.11026471407000442  0.6026212143550482  1.0000
  N   N19       1.0  0.5477434330604983  0.38973528607934405  0.10262121498978284  1.0000
  N   N20       1.0  0.047743432409536476  0.8897352862286925  0.39737878558836975  1.0000
  S   S1        1.0  0.9886764090123084  0.0006162312054641118  0.7598387360786923  1.0000
  S   S2        1.0  0.48867640906324544  0.5006162313548126  0.7401612632299911  1.0000
  S   S3        1.0  0.48867640906324544  0.9993837690932327  0.2401612638647257  1.0000
  S   S4        1.0  0.9886764090123084  0.4993837689438843  0.25983873671342694  1.0000
  S   S5        1.0  0.9354269676472305  0.44441398844408025  0.7600361322541833  1.0000
  S   S6        1.0  0.4354269676981675  0.9444139885934287  0.7399638670545002  1.0000
  S   S7        1.0  0.4354269676981675  0.555586010939288  0.23996386768923478  1.0000
  S   S8        1.0  0.9354269676472305  0.055586011705268196  0.26003613288891786  1.0000
  Br  Br1       1.0  0.19232283359975647  0.8309520173095458  0.755478485507946  1.0000
  Br  Br2       1.0  0.6923228342507184  0.33095201716019745  0.7445215138007374  1.0000
  Br  Br3       1.0  0.6923228342507184  0.16904798298915102  0.244521514435472  1.0000
  Br  Br4       1.0  0.19232283359975647  0.6690479831384994  0.2554784861426806  1.0000
