data_image0
_chemical_formula_structural       H52C28N20S8Br4
_chemical_formula_sum              "H52 C28 N20 S8 Br4"
_cell_length_a       13.70958633364533
_cell_length_b       11.533665840229098
_cell_length_c       8.176186384983515
_cell_angle_alpha    90.0
_cell_angle_beta     90.0
_cell_angle_gamma    90.0

_space_group_name_H-M_alt    "P 1"
_space_group_IT_number       1

loop_
  _space_group_symop_operation_xyz
  'x, y, z'

loop_
  _atom_site_type_symbol
  _atom_site_label
  _atom_site_symmetry_multiplicity
  _atom_site_fract_x
  _atom_site_fract_y
  _atom_site_fract_z
  _atom_site_occupancy
  H   H1        1.0  0.6975799420387829  0.3209387475999975  0.3864661372939544  1.0000
  H   H2        1.0  0.19757994180702285  0.679061252380139  0.6135338620965298  1.0000
  H   H3        1.0  0.6975799420387829  0.17906125239007076  0.8864661369891965  1.0000
  H   H4        1.0  0.19757994180702285  0.8209387475900659  0.11353386240128767  1.0000
  H   H5        1.0  0.6291305725857457  0.42147044550611346  0.5020253975054504  1.0000
  H   H6        1.0  0.12913057235398556  0.5785295544740231  0.497974603108098  1.0000
  H   H7        1.0  0.6291305725857457  0.07852955448395486  0.0020253978102082355  1.0000
  H   H8        1.0  0.12913057235398556  0.9214704454961817  0.9979746028033402  1.0000
  H   H9        1.0  0.6999430286565383  0.3292892392246176  0.11193769526596295  1.0000
  H   H10       1.0  0.1999430284247783  0.6707107607555189  0.8880623041245213  1.0000
  H   H11       1.0  0.6999430286565383  0.17071076076545066  0.6119376961842692  1.0000
  H   H12       1.0  0.1999430284247783  0.8292892392146859  0.38806230442927914  1.0000
  H   H13       1.0  0.6299885372036228  0.43340546962653353  0.003926751236856097  1.0000
  H   H14       1.0  0.12998853770127933  0.5665945303536031  0.9960732493766921  1.0000
  H   H15       1.0  0.6299885372036228  0.06659453036353473  0.5039267509320982  1.0000
  H   H16       1.0  0.12998853770127933  0.9334054696166018  0.49607324968145006  1.0000
  H   H17       1.0  0.8886666740702829  0.3371467080689031  0.37217351301931395  1.0000
  H   H18       1.0  0.3886666738385229  0.6628532919112334  0.6278264863711702  1.0000
  H   H19       1.0  0.8886666740702829  0.16285329192116516  0.8721735127145561  1.0000
  H   H20       1.0  0.3886666738385229  0.8371467080589714  0.1278264866759281  1.0000
  H   H21       1.0  0.9792862755495102  0.41219815155539186  0.48660858163741844  1.0000
  H   H22       1.0  0.4792862753177501  0.5878018484247447  0.5133914177530656  1.0000
  H   H23       1.0  0.9792862755495102  0.08780184843467641  0.9866085813326605  1.0000
  H   H24       1.0  0.4792862753177501  0.9121981515454601  0.013391418057823635  1.0000
  H   H25       1.0  0.9101189515382202  0.30212949362947583  0.10042163440745186  1.0000
  H   H26       1.0  0.4101189520358767  0.6978705063506607  0.8995783649830322  1.0000
  H   H27       1.0  0.9101189515382202  0.19787050636059247  0.6004216353257581  1.0000
  H   H28       1.0  0.4101189520358767  0.8021294936195441  0.3995783652877902  1.0000
  H   H29       1.0  0.00299802773035758  0.3763289400028069  0.9896600357424844  1.0000
  H   H30       1.0  0.5029980279621177  0.6236710599773296  0.010339964871063841  1.0000
  H   H31       1.0  0.00299802773035758  0.12367105998726137  0.48966003604724234  1.0000
  H   H32       1.0  0.5029980279621177  0.8763289399928752  0.5103399645663059  1.0000
  H   H33       1.0  0.8188646496538723  0.5135376186590083  0.9290362966713747  1.0000
  H   H34       1.0  0.31886465015152893  0.48646238132112835  0.07096370271910941  1.0000
  H   H35       1.0  0.8188646496538723  0.9864623813111967  0.4290362969761327  1.0000
  H   H36       1.0  0.31886465015152893  0.013537618668939913  0.5709637024143515  1.0000
  H   H37       1.0  0.9565243422274108  0.6206707658402044  0.06544480211248008  1.0000
  H   H38       1.0  0.45652434199565073  0.379329234139932  0.9345551985010682  1.0000
  H   H39       1.0  0.9565243422274108  0.8793292341300003  0.5654448018077222  1.0000
  H   H40       1.0  0.45652434199565073  0.1206707658501362  0.4345551988058261  1.0000
  H   H41       1.0  0.9404274283870264  0.8372813200740502  0.10577213498805821  1.0000
  H   H42       1.0  0.44042742888468295  0.16271867990608624  0.894227864402426  1.0000
  H   H43       1.0  0.9404274283870264  0.6627186798961545  0.6057721346833004  1.0000
  H   H44       1.0  0.44042742888468295  0.33728132008398204  0.39422786470718385  1.0000
  H   H45       1.0  0.7877093646142522  0.9356482058253948  0.011232327111411021  1.0000
  H   H46       1.0  0.2877093643824922  0.06435179415474179  0.988767672279073  1.0000
  H   H47       1.0  0.7877093646142522  0.5643517941448101  0.5112323268066531  1.0000
  H   H48       1.0  0.2877093643824922  0.4356482058353265  0.4887676725838311  1.0000
  H   H49       1.0  0.6562455927587254  0.8161747011228666  0.8797898850754371  1.0000
  H   H50       1.0  0.1562455925269653  0.18382529885726998  0.12021011553811119  1.0000
  H   H51       1.0  0.6562455927587254  0.6838252988473382  0.379789885380195  1.0000
  H   H52       1.0  0.1562455925269653  0.3161747011327983  0.6202101152333532  1.0000
  C   C1        1.0  0.615232093422127  0.4359077443065694  0.25341853676494647  1.0000
  C   C2        1.0  0.11523209319036697  0.5640922556735671  0.7465814638486018  1.0000
  C   C3        1.0  0.615232093422127  0.06409225568349886  0.7534185364601885  1.0000
  C   C4        1.0  0.11523209319036697  0.9359077442966377  0.2465814641533597  1.0000
  C   C5        1.0  0.0036483391097841098  0.39793494051053885  0.23887626676259263  1.0000
  C   C6        1.0  0.5036483386121275  0.6020650594695978  0.7611237338509557  1.0000
  C   C7        1.0  0.0036483391097841098  0.10206505947952946  0.7388762664578347  1.0000
  C   C8        1.0  0.5036483386121275  0.8979349405006071  0.26112373415571355  1.0000
  C   C9        1.0  0.8149039955043929  0.6067721500643883  0.9528660017228445  1.0000
  C   C10       1.0  0.31490399527263274  0.3932278499157482  0.04713399766763964  1.0000
  C   C11       1.0  0.8149039955043929  0.8932278499058166  0.4528660020276024  1.0000
  C   C12       1.0  0.31490399527263274  0.10677215007432005  0.5471339973628817  1.0000
  C   C13       1.0  0.8913515209434281  0.6674336482985094  0.026907276771974367  1.0000
  C   C14       1.0  0.39135152071166796  0.3325663516816271  0.9730927226185098  1.0000
  C   C15       1.0  0.8913515209434281  0.8325663516716955  0.5269072764672164  1.0000
  C   C16       1.0  0.39135152071166796  0.16743364830844112  0.47309272292326776  1.0000
  C   C17       1.0  0.8824188218072436  0.7869135594637376  0.04827070732204152  1.0000
  C   C18       1.0  0.38241882157548346  0.2130864405163989  0.9517292920684427  1.0000
  C   C19       1.0  0.8824188218072436  0.7130864405064672  0.5482707070172836  1.0000
  C   C20       1.0  0.38241882157548346  0.2869135594736693  0.45172929237320053  1.0000
  C   C21       1.0  0.7978665222856154  0.8425514380783355  0.9951581577132068  1.0000
  C   C22       1.0  0.29786652205385533  0.1574485619018011  0.00484184167727725  1.0000
  C   C23       1.0  0.7978665222856154  0.6574485618918694  0.4951581580179648  1.0000
  C   C24       1.0  0.29786652205385533  0.34255143808826716  0.5048418413725193  1.0000
  C   C25       1.0  0.7240686070620871  0.7761604440433644  0.9232327132199077  1.0000
  C   C26       1.0  0.22406860683032703  0.2238395559367722  0.07676728617057639  1.0000
  C   C27       1.0  0.7240686070620871  0.7238395559268405  0.42323271352466574  1.0000
  C   C28       1.0  0.22406860683032703  0.2761604440532961  0.5767672858658185  1.0000
  N   N1        1.0  0.6467477941504302  0.3859535469177056  0.39177757320737233  1.0000
  N   N2        1.0  0.14674779464808665  0.6140464530624309  0.6082224261831118  1.0000
  N   N3        1.0  0.6467477941504302  0.11404645307236265  0.8917775741256785  1.0000
  N   N4        1.0  0.14674779464808665  0.885953546907774  0.10822242648786976  1.0000
  N   N5        1.0  0.6490030584047659  0.39435419258771015  0.11164244637041018  1.0000
  N   N6        1.0  0.14900305817300577  0.6056458073924263  0.8883575530200739  1.0000
  N   N7        1.0  0.6490030584047659  0.1056458074023581  0.6116424472887163  1.0000
  N   N8        1.0  0.14900305817300577  0.8943541925777784  0.38835755332483185  1.0000
  N   N9        1.0  0.951957922170931  0.38457406530098454  0.3758679517928084  1.0000
  N   N10       1.0  0.4519579219391709  0.615425934679152  0.6241320475976758  1.0000
  N   N11       1.0  0.951957922170931  0.11542593468908374  0.8758679514880504  1.0000
  N   N12       1.0  0.4519579219391709  0.8845740652910529  0.12413204790243372  1.0000
  N   N13       1.0  0.9721249019230097  0.3521018881815753  0.09925892241039418  1.0000
  N   N14       1.0  0.47212490169124954  0.6478981117985613  0.9007410782031541  1.0000
  N   N15       1.0  0.9721249019230097  0.14789811180849305  0.5992589221056362  1.0000
  N   N16       1.0  0.47212490169124954  0.8521018881716436  0.4007410772848479  1.0000
  N   N17       1.0  0.7344620439267947  0.6621931236606984  0.9051089091598443  1.0000
  N   N18       1.0  0.23446204369503457  0.3378068763194382  0.09489109145370397  1.0000
  N   N19       1.0  0.7344620439267947  0.8378068763095063  0.4051089082415381  1.0000
  N   N20       1.0  0.23446204369503457  0.1621931236706301  0.5948910911489461  1.0000
  S   S1        1.0  0.5315507465105493  0.5457258635017793  0.25822960370347  1.0000
  S   S2        1.0  0.031550746278789225  0.45427413647835724  0.7417703969100783  1.0000
  S   S3        1.0  0.5315507465105493  0.9542741364684255  0.758229603398712  1.0000
  S   S4        1.0  0.031550746278789225  0.045725863511711054  0.2417703972148362  1.0000
  S   S5        1.0  0.11042136962840642  0.477600993154019  0.24442273401085504  1.0000
  S   S6        1.0  0.6104213698601665  0.5223990068261176  0.7555772653796292  1.0000
  S   S7        1.0  0.11042136962840642  0.022399006836049312  0.7444227349291612  1.0000
  S   S8        1.0  0.6104213698601665  0.9776009931440872  0.25557726568438704  1.0000
  Br  Br1       1.0  0.7953888778714555  0.179007284292796  0.23998047715786705  1.0000
  Br  Br2       1.0  0.29538887836911193  0.8209927156873406  0.7600195222326172  1.0000
  Br  Br3       1.0  0.7953888778714555  0.3209927156972723  0.7399804768531092  1.0000
  Br  Br4       1.0  0.29538887836911193  0.6790072842828643  0.26001952253737504  1.0000
