data_image0
_chemical_formula_structural       H44C34N4O26
_chemical_formula_sum              "H44 C34 N4 O26"
_cell_length_a       9.783176501038382
_cell_length_b       10.128364629565661
_cell_length_c       11.400345513145732
_cell_angle_alpha    104.76621156804178
_cell_angle_beta     107.61392241904605
_cell_angle_gamma    101.21693406091454

_space_group_name_H-M_alt    "P 1"
_space_group_IT_number       1

loop_
  _space_group_symop_operation_xyz
  'x, y, z'

loop_
  _atom_site_type_symbol
  _atom_site_label
  _atom_site_symmetry_multiplicity
  _atom_site_fract_x
  _atom_site_fract_y
  _atom_site_fract_z
  _atom_site_occupancy
  H   H1        1.0  0.15433525671365106  0.004699830003204224  0.9869200194592906  1.0000
  H   H2        1.0  0.8456643211639969  0.9952989571347178  0.01307999083877924  1.0000
  H   H3        1.0  0.7331658983118194  0.6445720949958956  0.9207413231468721  1.0000
  H   H4        1.0  0.26683465123929817  0.35542589471888336  0.07925917770114699  1.0000
  H   H5        1.0  0.8963798672206955  0.6667599553140955  0.4224500692644634  1.0000
  H   H6        1.0  0.10361944675633672  0.33323616609406026  0.5775491504235479  1.0000
  H   H7        1.0  0.03834627091214132  0.6584943627772558  0.8990682768827004  1.0000
  H   H8        1.0  0.9616526998150278  0.34150398327851167  0.1009294903171663  1.0000
  H   H9        1.0  0.42290717419070994  0.2638960613500797  0.6316714599091942  1.0000
  H   H10       1.0  0.577093380037446  0.7361037593830149  0.36832887193894553  1.0000
  H   H11       1.0  0.4980989596765136  0.13489331116387968  0.6676576500737172  1.0000
  H   H12       1.0  0.5019010669623066  0.8651060903827249  0.3323425949327153  1.0000
  H   H13       1.0  0.33711950398094775  0.14241242669109136  0.6855687723019666  1.0000
  H   H14       1.0  0.662880850370283  0.8575876273944667  0.31443181546570576  1.0000
  H   H15       1.0  0.6376538580277126  0.35392272529907903  0.8436905139027319  1.0000
  H   H16       1.0  0.362346498550828  0.6460767337843908  0.15630986831655078  1.0000
  H   H17       1.0  0.4655843134617165  0.3820147399150067  0.8519182833245376  1.0000
  H   H18       1.0  0.5344160993780397  0.6179845983296642  0.14808250251400887  1.0000
  H   H19       1.0  0.5852105906735058  0.1364504640537022  0.9078038437550957  1.0000
  H   H20       1.0  0.4147906238279436  0.8635491095310142  0.09219667108505379  1.0000
  H   H21       1.0  0.4109861770819802  0.15890413865193864  0.9097399885249895  1.0000
  H   H22       1.0  0.5890149874309635  0.8410947544373784  0.0902602938461101  1.0000
  H   H23       1.0  0.540759409953741  0.3891836427106568  0.09247171031440353  1.0000
  H   H24       1.0  0.4592410334423475  0.6108156017093496  0.9075285962250984  1.0000
  H   H25       1.0  0.7165804791916212  0.3750842887433966  0.08877934102047189  1.0000
  H   H26       1.0  0.2834200840910127  0.6249146906221495  0.9112213333709138  1.0000
  H   H27       1.0  0.4972552950419746  0.15580868382293991  0.13923745551285024  1.0000
  H   H28       1.0  0.5027448038647567  0.844190700980835  0.8607630587679906  1.0000
  H   H29       1.0  0.6794304191073962  0.15353540156998763  0.14491330033374766  1.0000
  H   H30       1.0  0.32056968741253744  0.8464635605900175  0.8550873210983815  1.0000
  H   H31       1.0  0.7891698203017159  0.3869538815396673  0.3315810565319952  1.0000
  H   H32       1.0  0.2108305073046573  0.6130453763260986  0.6684193923780137  1.0000
  H   H33       1.0  0.6047277154814718  0.3831845527264403  0.32906461521059266  1.0000
  H   H34       1.0  0.39527276500206965  0.6168148973943473  0.6709359391597434  1.0000
  H   H35       1.0  0.7468985907521247  0.28367803143962844  0.4901959632034544  1.0000
  H   H36       1.0  0.2531016273956458  0.7163210707099241  0.5098043217745105  1.0000
  H   H37       1.0  0.58510987527668  0.16427889153748065  0.37910597658228357  1.0000
  H   H38       1.0  0.4148901201170149  0.8357205160055164  0.6208944143276065  1.0000
  H   H39       1.0  0.7471458245132214  0.152243597182362  0.36510030071677063  1.0000
  H   H40       1.0  0.2528543201485703  0.8477555712705946  0.6349003540482602  1.0000
  H   H41       1.0  0.8912673369889721  0.008802399205605578  0.3954993751158804  1.0000
  H   H42       1.0  0.10873457730166942  0.9911992139429148  0.6045022528006102  1.0000
  H   H43       1.0  0.8500087225759831  0.0009394021029218101  0.2490417196436532  1.0000
  H   H44       1.0  0.14999146311537764  0.9990593947498442  0.7509595380176481  1.0000
  C   C1        1.0  0.20638121653572425  0.008620549582433823  0.16927792195290273  1.0000
  C   C2        1.0  0.7936185403177981  0.991378631679027  0.8307222782693219  1.0000
  C   C3        1.0  0.29640452297485526  0.014917765488096806  0.2997548499982893  1.0000
  C   C4        1.0  0.7035954681506099  0.9850818574964687  0.7002453504421599  1.0000
  C   C5        1.0  0.16025812895982286  0.012104642101279463  0.3364395337524855  1.0000
  C   C6        1.0  0.8397419312859913  0.987894629290953  0.6635606112756964  1.0000
  C   C7        1.0  0.07421940524318454  0.0046972025882061515  0.20076641553678595  1.0000
  C   C8        1.0  0.9257799908200398  0.9953013194943211  0.799233516923593  1.0000
  C   C9        1.0  0.9017167331477924  0.6657826828694754  0.23381640717651278  1.0000
  C   C10       1.0  0.09828226157643152  0.3342126030426332  0.7661821257602934  1.0000
  C   C11       1.0  0.05936981566576516  0.6691537440302908  0.24588981355389744  1.0000
  C   C12       1.0  0.9406301283651053  0.3308428882762602  0.7541096009991175  1.0000
  C   C13       1.0  0.016063684590246142  0.6633778929749439  0.10601089361555958  1.0000
  C   C14       1.0  0.9839365067524252  0.33661929005627056  0.8939893213480211  1.0000
  C   C15       1.0  0.8644200710356891  0.6586187641120489  0.09965419401288207  1.0000
  C   C16       1.0  0.13557925332117085  0.3413772993300747  0.9003454975622748  1.0000
  C   C17       1.0  0.7163383476444668  0.6467520780806655  0.5741644754160439  1.0000
  C   C18       1.0  0.28366059524413034  0.3532475508428735  0.4258341443454557  1.0000
  C   C19       1.0  0.8744245742840967  0.6523212779613177  0.5893231346057142  1.0000
  C   C20       1.0  0.12557481543642773  0.3476768649652405  0.410676254327688  1.0000
  C   C21       1.0  0.9085020312647768  0.6483850647016258  0.7190640496098293  1.0000
  C   C22       1.0  0.09149754638244491  0.35161449604946354  0.28093537425426324  1.0000
  C   C23       1.0  0.7546470755484268  0.6404109523205809  0.7109576039594968  1.0000
  C   C24       1.0  0.24535223249831437  0.35958904422501325  0.2890415461387568  1.0000
  C   C25       1.0  0.5238966053752949  0.3012893185255825  0.8344103338493761  1.0000
  C   C26       1.0  0.4761038669462576  0.6987101435710035  0.16559014132057479  1.0000
  C   C27       1.0  0.5267568548534795  0.21694529789307138  0.9276978175380193  1.0000
  C   C28       1.0  0.47324410103276515  0.783054008503327  0.07230260259053296  1.0000
  C   C29       1.0  0.6027838436502938  0.3124537968872145  0.0709700067041625  1.0000
  C   C30       1.0  0.39721663647357625  0.6875453647237888  0.9290304798971423  1.0000
  C   C31       1.0  0.6104211948913765  0.2246436286695101  0.16250365023824298  1.0000
  C   C32       1.0  0.3895790376661904  0.7753555124077651  0.8374968675365563  1.0000
  C   C33       1.0  0.6762752819578083  0.3173686432192801  0.30604134729338905  1.0000
  C   C34       1.0  0.3237250257651837  0.6826306092395198  0.6939591197911259  1.0000
  N   N1        1.0  0.44082407623241676  0.20581680574294084  0.6955536892862128  1.0000
  N   N2        1.0  0.5591762596022968  0.794182884576727  0.30444658776709055  1.0000
  N   N3        1.0  0.6899641624395184  0.22624406723953572  0.39109771125768905  1.0000
  N   N4        1.0  0.31003596076629303  0.7737552023981672  0.6089026944095022  1.0000
  O   O1        1.0  0.24175549323356474  0.008345843193795848  0.06795375123540023  1.0000
  O   O2        1.0  0.758244285675968  0.9916538040920237  0.9320465138150866  1.0000
  O   O3        1.0  0.4295172837555264  0.021409308293729393  0.3568966719908108  1.0000
  O   O4        1.0  0.5704825653487583  0.9785903479631791  0.6431034554030157  1.0000
  O   O5        1.0  0.13053267295715099  0.016625608365083564  0.4348758692670142  1.0000
  O   O6        1.0  0.8694674295980493  0.9833737156986219  0.5651245706786574  1.0000
  O   O7        1.0  0.93887454275247  0.9985057740422533  0.14294679405532615  1.0000
  O   O8        1.0  0.06112522656678918  0.0014930771367249183  0.8570532945030905  1.0000
  O   O9        1.0  0.8252969031844991  0.6676203530876716  0.305821236996404  1.0000
  O   O10       1.0  0.17470310253144017  0.3323756649620512  0.6941779865199104  1.0000
  O   O11       1.0  0.17608222651269992  0.673537036657479  0.33058079864884254  1.0000
  O   O12       1.0  0.8239174627843702  0.32646094619258287  0.6694181479939215  1.0000
  O   O13       1.0  0.08785999121887308  0.6639445512289469  0.031479754026218644  1.0000
  O   O14       1.0  0.9121384166664145  0.3360524188407895  0.9685194064287614  1.0000
  O   O15       1.0  0.7371012065244964  0.650459529085132  0.014778215493098252  1.0000
  O   O16       1.0  0.2628989412690759  0.3495382139902245  0.9852216907265088  1.0000
  O   O17       1.0  0.6038282608413913  0.6517249911489708  0.4913973922448793  1.0000
  O   O18       1.0  0.3961705774504882  0.3482746608863278  0.5086009688660523  1.0000
  O   O19       1.0  0.9573694403314134  0.6617653998903597  0.5216825546405087  1.0000
  O   O20       1.0  0.04263000221557994  0.33823284727773345  0.47831704196646857  1.0000
  O   O21       1.0  0.03473217000870826  0.655443484491493  0.8041608934748078  1.0000
  O   O22       1.0  0.9652678250865768  0.3445552987879482  0.19583710741324983  1.0000
  O   O23       1.0  0.6825159197672526  0.6364730370187486  0.783921492134354  1.0000
  O   O24       1.0  0.3174828747475065  0.36352582839513975  0.21607712350301478  1.0000
  O   O25       1.0  0.8079295966740919  0.004153687256062337  0.31894780227601877  1.0000
  O   O26       1.0  0.1920708246844451  0.995845711474931  0.6810535399258622  1.0000
