data_image0
_chemical_formula_structural       H40C88N8O8F32
_chemical_formula_sum              "H40 C88 N8 O8 F32"
_cell_length_a       17.0958563936953
_cell_length_b       6.201442319712554
_cell_length_c       18.931517826903946
_cell_angle_alpha    90.0
_cell_angle_beta     103.27626712118465
_cell_angle_gamma    90.0

_space_group_name_H-M_alt    "P 1"
_space_group_IT_number       1

loop_
  _space_group_symop_operation_xyz
  'x, y, z'

loop_
  _atom_site_type_symbol
  _atom_site_label
  _atom_site_symmetry_multiplicity
  _atom_site_fract_x
  _atom_site_fract_y
  _atom_site_fract_z
  _atom_site_occupancy
  H   H1        1.0  0.747183386669754  0.5302646304630021  0.3743053419137831  1.0000
  H   H2        1.0  0.2528166137511819  0.5302646304630021  0.1256946583375969  1.0000
  H   H3        1.0  0.2471833863636551  0.030264630439826367  0.374305341729256  1.0000
  H   H4        1.0  0.7528166134563519  0.030264630439826367  0.1256946584055893  1.0000
  H   H5        1.0  0.2528166135599201  0.4697353695833494  0.6256946582199228  1.0000
  H   H6        1.0  0.7471833864784921  0.4697353695833494  0.874305341796109  1.0000
  H   H7        1.0  0.7528166138660191  0.9697353696065252  0.6256946584044498  1.0000
  H   H8        1.0  0.24718338617239333  0.9697353696065252  0.8743053416115817  1.0000
  H   H9        1.0  0.6096793370944102  0.7291740996487407  0.5211032948920234  1.0000
  H   H10       1.0  0.39032066294400203  0.7291740996487407  0.9788967051240081  1.0000
  H   H11       1.0  0.10967933738924036  0.22917409962556506  0.5211032948240312  1.0000
  H   H12       1.0  0.890320662649172  0.22917409962556506  0.9788967051920004  1.0000
  H   H13       1.0  0.3903206631352638  0.27082590039761073  0.4788967052416822  1.0000
  H   H14       1.0  0.6096793372856721  0.27082590039761073  0.021103295009697754  1.0000
  H   H15       1.0  0.8903206628404338  0.7708259004207865  0.47889670530967465  1.0000
  H   H16       1.0  0.10967933697957327  0.7708259004207865  0.02110329482517066  1.0000
  H   H17       1.0  0.5122603744322622  0.3393318298407619  0.4336653572191884  1.0000
  H   H18       1.0  0.487739625979474  0.3393318298407619  0.06633464250212598  1.0000
  H   H19       1.0  0.01226037413536304  0.8393318298639377  0.43366535756472696  1.0000
  H   H20       1.0  0.987739625684644  0.8393318298639377  0.06633464257011838  1.0000
  H   H21       1.0  0.4877396257882122  0.6606681702055895  0.5663346423844519  1.0000
  H   H22       1.0  0.5122603742502  0.6606681702055895  0.9336653576315799  1.0000
  H   H23       1.0  0.9877396254933821  0.16066817018241386  0.5663346424524442  1.0000
  H   H24       1.0  0.012260374545030128  0.16066817018241386  0.9336653575635874  1.0000
  H   H25       1.0  0.6366331782250039  0.21823067767608126  0.4091775682810633  1.0000
  H   H26       1.0  0.36336682218673244  0.21823067767608126  0.09082243144025114  1.0000
  H   H27       1.0  0.136633177918905  0.7182306776992571  0.4091775680965362  1.0000
  H   H28       1.0  0.8633668218919024  0.7182306776992571  0.09082243150824353  1.0000
  H   H29       1.0  0.36336682200467024  0.7817693223702702  0.5908224318526425  1.0000
  H   H30       1.0  0.6366331780337422  0.7817693223702702  0.9091775681633891  1.0000
  H   H31       1.0  0.8633668223015696  0.2817693223470945  0.590822431507104  1.0000
  H   H32       1.0  0.13663317773684278  0.2817693223470945  0.9091775685089275  1.0000
  H   H33       1.0  0.6921408942525711  0.14700943635355096  0.49733308268206455  1.0000
  H   H34       1.0  0.3078591055674358  0.14700943635355096  0.0026669174527807313  1.0000
  H   H35       1.0  0.19214089454740121  0.6470094363767267  0.49733308261407216  1.0000
  H   H36       1.0  0.8078591058735347  0.6470094363767267  0.0026669176373078207  1.0000
  H   H37       1.0  0.307859105376174  0.8529905636928005  0.5026669173351065  1.0000
  H   H38       1.0  0.6921408940613094  0.8529905636928005  0.9973330825643902  1.0000
  H   H39       1.0  0.8078591056822729  0.35299056366962483  0.5026669175196335  1.0000
  H   H40       1.0  0.1921408943561394  0.35299056366962483  0.997333082496398  1.0000
  C   C1        1.0  0.8467532672907291  0.5629852153751593  0.293983935690036  1.0000
  C   C2        1.0  0.1532467331302069  0.5629852153751593  0.20601606456134397  1.0000
  C   C3        1.0  0.34675326698463016  0.0629852153519836  0.2939839355055089  1.0000
  C   C4        1.0  0.6532467328261772  0.0629852153519836  0.20601606409927078  1.0000
  C   C5        1.0  0.15324673293894508  0.4370147846711921  0.7060160644436698  1.0000
  C   C6        1.0  0.8467532670994673  0.4370147846711921  0.7939839355723618  1.0000
  C   C7        1.0  0.653246732644115  0.9370147846943679  0.7060160645116621  1.0000
  C   C8        1.0  0.3467532673942973  0.9370147846943679  0.7939839355043694  1.0000
  C   C9        1.0  0.9102782650597725  0.5610388584830486  0.2596262364500556  1.0000
  C   C10       1.0  0.08972173475103501  0.5610388584830486  0.2403737631547241  1.0000
  C   C11       1.0  0.4102782653638021  0.061038858459872836  0.2596262369121288  1.0000
  C   C12       1.0  0.589721734456205  0.061038858459872836  0.24037376322271647  1.0000
  C   C13       1.0  0.0897217345689728  0.4389611415633029  0.7403737635671155  1.0000
  C   C14       1.0  0.9102782654694395  0.4389611415633029  0.759626236448916  1.0000
  C   C15       1.0  0.5897217348658721  0.9389611415864787  0.740373763221577  1.0000
  C   C16       1.0  0.41027826517254024  0.9389611415864787  0.7596262367944546  1.0000
  C   C17       1.0  0.9664457620573457  0.3929972713368663  0.2685225378859273  1.0000
  C   C18       1.0  0.03355423776266125  0.3929972713368663  0.23147746224891808  1.0000
  C   C19       1.0  0.4664457623521758  0.8929972713600419  0.26852253781793484  1.0000
  C   C20       1.0  0.5335542374678313  0.8929972713600419  0.23147746231691044  1.0000
  C   C21       1.0  0.033554237571399435  0.6070027287094852  0.7314774621312439  1.0000
  C   C22       1.0  0.9664457624670129  0.6070027287094852  0.7685225378847877  1.0000
  C   C23       1.0  0.5335542378774983  0.10700272868630946  0.7314774623157708  1.0000
  C   C24       1.0  0.466445762160914  0.10700272868630946  0.7685225377002607  1.0000
  C   C25       1.0  0.9544850815248733  0.2258320480621538  0.3147534244762716  1.0000
  C   C26       1.0  0.045514918896062656  0.2258320480621538  0.1852465757751084  1.0000
  C   C27       1.0  0.4544850812187744  0.7258320480853295  0.31475342429174447  1.0000
  C   C28       1.0  0.5455149186012327  0.7258320480853295  0.18524657584310078  1.0000
  C   C29       1.0  0.04551491870480084  0.7741679519841977  0.6852465756574342  1.0000
  C   C30       1.0  0.9544850813336114  0.7741679519841977  0.8147534243585974  1.0000
  C   C31       1.0  0.5455149184099709  0.27416795196102195  0.6852465757254266  1.0000
  C   C32       1.0  0.4544850810275126  0.27416795196102195  0.8147534241740704  1.0000
  C   C33       1.0  0.8906638486641689  0.224872076221236  0.34875659846855733  1.0000
  C   C34       1.0  0.10933615115583804  0.224872076221236  0.15124340166628794  1.0000
  C   C35       1.0  0.390663848958999  0.7248720762444117  0.34875659840056494  1.0000
  C   C36       1.0  0.6093361514527373  0.7248720762444117  0.15124340132074945  1.0000
  C   C37       1.0  0.10933615096457622  0.7751279238251154  0.6512434015486137  1.0000
  C   C38       1.0  0.890663849073836  0.7751279238251154  0.8487565984674178  1.0000
  C   C39       1.0  0.6093361512706751  0.27512792380193973  0.6512434017331408  1.0000
  C   C40       1.0  0.3906638487677372  0.27512792380193973  0.8487565982828907  1.0000
  C   C41       1.0  0.8351967669317588  0.3944775995454862  0.33983104817642834  1.0000
  C   C42       1.0  0.16480323348917714  0.3944775995454862  0.16016895207495163  1.0000
  C   C43       1.0  0.33519676662565995  0.894477599568662  0.3398310479919012  1.0000
  C   C44       1.0  0.6648032331943472  0.894477599568662  0.16016895214294405  1.0000
  C   C45       1.0  0.16480323329791532  0.6055224005008653  0.6601689519572775  1.0000
  C   C46       1.0  0.8351967667404969  0.6055224005008653  0.8398310480587541  1.0000
  C   C47       1.0  0.6648032336040143  0.10552240047768953  0.6601689521418046  1.0000
  C   C48       1.0  0.3351967664343981  0.10552240047768953  0.839831047874227  1.0000
  C   C49       1.0  0.6781382637583654  0.9033502806585267  0.4206378251767193  1.0000
  C   C50       1.0  0.32186173606164165  0.9033502806585267  0.07936217495812595  1.0000
  C   C51       1.0  0.1781382640531954  0.4033502806353509  0.42063782510872694  1.0000
  C   C52       1.0  0.8218617363677405  0.4033502806353509  0.07936217514265302  1.0000
  C   C53       1.0  0.3218617364713087  0.09664971938782485  0.5793621749569864  1.0000
  C   C54       1.0  0.6781382635671036  0.09664971938782485  0.920637825059045  1.0000
  C   C55       1.0  0.8218617361764788  0.5966497194110006  0.5793621750249788  1.0000
  C   C56       1.0  0.17813826386193357  0.5966497194110006  0.9206378249910526  1.0000
  C   C57       1.0  0.561545017645403  0.8482635730205148  0.5113781885111384  1.0000
  C   C58       1.0  0.4384549823930093  0.8482635730205148  0.9886218115048933  1.0000
  C   C59       1.0  0.06154501794023305  0.34826357299733895  0.511378188443146  1.0000
  C   C60       1.0  0.9384549820981792  0.34826357299733895  0.9886218115728855  1.0000
  C   C61       1.0  0.4384549819833422  0.1517364270258368  0.48862181150603273  1.0000
  C   C62       1.0  0.5615450178366649  0.1517364270258368  0.0113781886288126  1.0000
  C   C63       1.0  0.9384549822802415  0.6517364270490126  0.48862181116049425  1.0000
  C   C64       1.0  0.06154501753056596  0.6517364270490126  0.011378188444285507  1.0000
  C   C65       1.0  0.5693950785508367  0.039371136166806604  0.4744529435695415  1.0000
  C   C66       1.0  0.4306049218608996  0.039371136166806604  0.025547056151772912  1.0000
  C   C67       1.0  0.06939507824473791  0.5393711361899824  0.4744529433850143  1.0000
  C   C68       1.0  0.9306049215660694  0.5393711361899824  0.025547056219765295  1.0000
  C   C69       1.0  0.43060492167883735  0.9606288638795449  0.5255470565641643  1.0000
  C   C70       1.0  0.5693950783595749  0.9606288638795449  0.9744529434518673  1.0000
  C   C71       1.0  0.9306049213748078  0.4606288638563692  0.5255470561020912  1.0000
  C   C72       1.0  0.06939507866360459  0.4606288638563692  0.9744529439139404  1.0000
  C   C73       1.0  0.5072472922261928  0.19073286003808634  0.46292681547193076  1.0000
  C   C74       1.0  0.4927527075938142  0.19073286003808634  0.03707318466291456  1.0000
  C   C75       1.0  0.007247292521022864  0.6907328600612621  0.4629268154039383  1.0000
  C   C76       1.0  0.992752707899913  0.6907328600612621  0.037073184847441654  1.0000
  C   C77       1.0  0.49275270740255234  0.8092671400082653  0.5370731845452404  1.0000
  C   C78       1.0  0.50724729263586  0.8092671400082653  0.9629268154707913  1.0000
  C   C79       1.0  0.9927527077086513  0.3092671399850894  0.5370731847297675  1.0000
  C   C80       1.0  0.00724729232976105  0.3092671399850894  0.9629268152862642  1.0000
  C   C81       1.0  0.6460976047928164  0.09022177118724438  0.4502774426892602  1.0000
  C   C82       1.0  0.35390239502719056  0.09022177118724438  0.0497225574455851  1.0000
  C   C83       1.0  0.14609760508764646  0.5902217712104201  0.4502774426212678  1.0000
  C   C84       1.0  0.8539023953332895  0.5902217712104201  0.049722557630112185  1.0000
  C   C85       1.0  0.3539023954368577  0.9097782288591071  0.5497225574444456  1.0000
  C   C86       1.0  0.6460976046015546  0.9097782288591071  0.9502774425715859  1.0000
  C   C87       1.0  0.8539023951420276  0.4097782288359314  0.549722557512438  1.0000
  C   C88       1.0  0.14609760489638465  0.4097782288359314  0.9502774425035936  1.0000
  N   N1        1.0  0.7017411821567552  0.7487258948197745  0.397871817805742  1.0000
  N   N2        1.0  0.2982588176540522  0.7487258948197745  0.1021281817990377  1.0000
  N   N3        1.0  0.20174118185985598  0.24872589479659876  0.3978718181512805  1.0000
  N   N4        1.0  0.798258817960151  0.24872589479659876  0.10212818198356476  1.0000
  N   N5        1.0  0.29825881806371923  0.251274105226577  0.6021281817978982  1.0000
  N   N6        1.0  0.701741181974693  0.251274105226577  0.8978718182181333  1.0000
  N   N7        1.0  0.7982588177688893  0.7512741052497527  0.6021281818658906  1.0000
  N   N8        1.0  0.2017411822695231  0.7512741052497527  0.8978718181501409  1.0000
  O   O1        1.0  0.7753440203982767  0.38706382584096344  0.37486333680607575  1.0000
  O   O2        1.0  0.22465597942173035  0.38706382584096344  0.12513666332876955  1.0000
  O   O3        1.0  0.2753440206931067  0.8870638258641391  0.3748633367380833  1.0000
  O   O4        1.0  0.7246559797186297  0.8870638258641391  0.1251366629832311  1.0000
  O   O5        1.0  0.22465597923046854  0.612936174205388  0.6251366632110954  1.0000
  O   O6        1.0  0.7753440208079437  0.612936174205388  0.8748633368049362  1.0000
  O   O7        1.0  0.7246559795365675  0.11293617418221236  0.6251366633956223  1.0000
  O   O8        1.0  0.27534402050184487  0.11293617418221236  0.8748633366204092  1.0000
  F   F1        1.0  0.7941069397009912  0.729826831673214  0.28298140082493634  1.0000
  F   F2        1.0  0.2058930607199448  0.729826831673214  0.2170185994264436  1.0000
  F   F3        1.0  0.2941069393948923  0.22982683165003828  0.2829814006404093  1.0000
  F   F4        1.0  0.7058930604159152  0.22982683165003828  0.21701859896437045  1.0000
  F   F5        1.0  0.20589306052868298  0.2701731683731375  0.7170185993087694  1.0000
  F   F6        1.0  0.7941069395097294  0.2701731683731375  0.7829814007072622  1.0000
  F   F7        1.0  0.7058930602338529  0.770173166783785  0.7170185993767618  1.0000
  F   F8        1.0  0.29410693920363046  0.770173166783785  0.7829814005227351  1.0000
  F   F9        1.0  0.9160274179486063  0.7279620816031793  0.21483257055966157  1.0000
  F   F10       1.0  0.08397258247232971  0.7279620816031793  0.28516742969171843  1.0000
  F   F11       1.0  0.41602741764250734  0.2279620815800036  0.21483257037513448  1.0000
  F   F12       1.0  0.5839725821683002  0.2279620815800036  0.2851674292296453  1.0000
  F   F13       1.0  0.0839725822810679  0.27203791844317216  0.7851674295740442  1.0000
  F   F14       1.0  0.9160274177573444  0.27203791844317216  0.7148325704419872  1.0000
  F   F15       1.0  0.5839725825871669  0.772037918466348  0.7851674297585713  1.0000
  F   F16       1.0  0.41602741745124555  0.772037918466348  0.7148325702574603  1.0000
  F   F17       1.0  0.8824587965574353  0.05993108551838098  0.39354475710083914  1.0000
  F   F18       1.0  0.11754120386350057  0.05993108551838098  0.10645524315054078  1.0000
  F   F19       1.0  0.38245879625133644  0.5599310855415567  0.3935447569163121  1.0000
  F   F20       1.0  0.6175412035686706  0.5599310855415567  0.1064552432185332  1.0000
  F   F21       1.0  0.11754120367223875  0.9400689145279705  0.6064552430328666  1.0000
  F   F22       1.0  0.8824587963661735  0.9400689145279705  0.8935447569831648  1.0000
  F   F23       1.0  0.6175412033774087  0.44006891450479474  0.606455243100859  1.0000
  F   F24       1.0  0.3824587966610036  0.44006891450479474  0.8935447569151725  1.0000
  F   F25       1.0  0.007951702160128566  0.061474439387782714  0.3291262033027354  1.0000
  F   F26       1.0  0.9920482976598785  0.061474439387782714  0.17087379683210985  1.0000
  F   F27       1.0  0.507951701856099  0.5614744394109584  0.32912620284066224  1.0000
  F   F28       1.0  0.49204829795470856  0.5614744394109584  0.17087379676411749  1.0000
  F   F29       1.0  0.9920482980695455  0.9385255606585687  0.6708737968309704  1.0000
  F   F30       1.0  0.007951701968866753  0.9385255606585687  0.8291262031850613  1.0000
  F   F31       1.0  0.4920482977634467  0.438525560635393  0.6708737966464432  1.0000
  F   F32       1.0  0.5079517022749656  0.438525560635393  0.8291262033695884  1.0000
