data_image0
_chemical_formula_structural       H124C104N4O16S4Br4
_chemical_formula_sum              "H124 C104 N4 O16 S4 Br4"
_cell_length_a       27.499577529812804
_cell_length_b       12.654991788455211
_cell_length_c       7.083298576413844
_cell_angle_alpha    90.0
_cell_angle_beta     94.46427454836993
_cell_angle_gamma    90.0

_space_group_name_H-M_alt    "P 1"
_space_group_IT_number       1

loop_
  _space_group_symop_operation_xyz
  'x, y, z'

loop_
  _atom_site_type_symbol
  _atom_site_label
  _atom_site_symmetry_multiplicity
  _atom_site_fract_x
  _atom_site_fract_y
  _atom_site_fract_z
  _atom_site_occupancy
  H   H1        1.0  0.4498315207265332  0.9109842726659942  0.7240092316798694  1.0000
  H   H2        1.0  0.9498315208195124  0.4109842730000604  0.7240092313081833  1.0000
  H   H3        1.0  0.5501684792204481  0.9109842726659942  0.27599076785114346  1.0000
  H   H4        1.0  0.050168479127468885  0.4109842730000604  0.27599076822282964  1.0000
  H   H5        1.0  0.5272081254406428  0.013605951143885991  0.7337324210640678  1.0000
  H   H6        1.0  0.027208125347663505  0.5136059508098197  0.733732421435754  1.0000
  H   H7        1.0  0.47279187453673294  0.013605951143885991  0.26626757988299155  1.0000
  H   H8        1.0  0.9727918746297121  0.5136059508098197  0.2662675795113053  1.0000
  H   H9        1.0  0.5318113888024374  0.6216041884101646  0.7787475307206482  1.0000
  H   H10       1.0  0.03181138867906379  0.12160418874423093  0.778747529676288  1.0000
  H   H11       1.0  0.4681886111749383  0.6216041884101646  0.22125247022641104  1.0000
  H   H12       1.0  0.9681886112679176  0.12160418874423093  0.2212524698547248  1.0000
  H   H13       1.0  0.609076649288332  0.7232389694910463  0.7939926936795318  1.0000
  H   H14       1.0  0.1090766491649584  0.22323896903491053  0.7939926926351716  1.0000
  H   H15       1.0  0.3909233506890437  0.7232389694910463  0.20600730726752747  1.0000
  H   H16       1.0  0.8909233507820229  0.22323896903491053  0.20600730689584124  1.0000
  H   H17       1.0  0.41458108132081317  0.36988174613200514  0.033858104245246955  1.0000
  H   H18       1.0  0.9145810810807067  0.8698817457979389  0.03385810529740973  1.0000
  H   H19       1.0  0.5854189189896483  0.36988174613200514  0.9661418952779632  1.0000
  H   H20       1.0  0.08541891889666899  0.8698817457979389  0.9661418956496495  1.0000
  H   H21       1.0  0.37131483705656254  0.5745846091052748  0.4718193418442353  1.0000
  H   H22       1.0  0.8713148371495417  0.07458460943934105  0.47181934147254906  1.0000
  H   H23       1.0  0.6286851629208132  0.5745846091052748  0.528180659102824  1.0000
  H   H24       1.0  0.12868516279743952  0.07458460943934105  0.5281806580584638  1.0000
  H   H25       1.0  0.31233960567654995  0.3648283576297431  0.7361187545783918  1.0000
  H   H26       1.0  0.8123396057999236  0.8648283580858788  0.736118755622752  1.0000
  H   H27       1.0  0.6876603942704312  0.3648283576297431  0.26388124495262105  1.0000
  H   H28       1.0  0.18766039417745214  0.8648283580858788  0.26388124532430723  1.0000
  H   H29       1.0  0.3468107018721819  0.47057880159454013  0.6595205436576747  1.0000
  H   H30       1.0  0.8468107019651611  0.9705788020506759  0.6595205432859884  1.0000
  H   H31       1.0  0.6531892980747994  0.47057880159454013  0.3404794558733383  1.0000
  H   H32       1.0  0.15318929798182018  0.9705788020506759  0.34047945624502446  1.0000
  H   H33       1.0  0.37721520132480935  0.35676863371170403  0.7562972173293806  1.0000
  H   H34       1.0  0.8772152014177886  0.8567686341678398  0.7562972169576944  1.0000
  H   H35       1.0  0.6227847986525662  0.35676863371170403  0.2437027836176786  1.0000
  H   H36       1.0  0.12278479855958703  0.8567686341678398  0.24370278398936485  1.0000
  H   H37       1.0  0.3379466452988838  0.8731113377789692  0.5860666639811878  1.0000
  H   H38       1.0  0.8379466450283831  0.37311133732283347  0.5860666636173042  1.0000
  H   H39       1.0  0.6620533550115774  0.8731113377789692  0.4139333355420224  1.0000
  H   H40       1.0  0.1620533549185982  0.37311133732283347  0.4139333359137086  1.0000
  H   H41       1.0  0.3208621436541255  0.9255246187267372  0.802355074676725  1.0000
  H   H42       1.0  0.8208621437471048  0.4255246190608034  0.8023550743050386  1.0000
  H   H43       1.0  0.6791378562928558  0.9255246187267372  0.19764492485428795  1.0000
  H   H44       1.0  0.17913785619987654  0.4255246190608034  0.19764492522597418  1.0000
  H   H45       1.0  0.24203696450352835  0.9395241623820418  0.6235294967983378  1.0000
  H   H46       1.0  0.7420369642330276  0.43952416192590604  0.6235294964344542  1.0000
  H   H47       1.0  0.757963035806933  0.9395241623820418  0.3764705027248723  1.0000
  H   H48       1.0  0.25796303571395374  0.43952416192590604  0.37647050309655855  1.0000
  H   H49       1.0  0.2556718967639087  0.8342636081069129  0.47409118693187435  1.0000
  H   H50       1.0  0.7556718964934079  0.33426360765077723  0.47409118656799076  1.0000
  H   H51       1.0  0.7443281031830726  0.8342636081069129  0.5259088125991385  1.0000
  H   H52       1.0  0.24432810345357334  0.33426360765077723  0.525908812963022  1.0000
  H   H53       1.0  0.15984090013722613  0.8012614760643617  0.6243348667573346  1.0000
  H   H54       1.0  0.6598409002302053  0.301261476398428  0.6243348663856484  1.0000
  H   H55       1.0  0.8401590998401496  0.8012614760643617  0.3756651341897246  1.0000
  H   H56       1.0  0.340159099716776  0.301261476398428  0.37566513314536454  1.0000
  H   H57       1.0  0.19091569891768354  0.6920821416881473  0.5297830409663112  1.0000
  H   H58       1.0  0.6909156986471827  0.1920821412320115  0.5297830406024276  1.0000
  H   H59       1.0  0.8090843010292978  0.6920821416881473  0.4702169585647016  1.0000
  H   H60       1.0  0.3090843012997985  0.1920821412320115  0.4702169589285853  1.0000
  H   H61       1.0  0.1691794136259732  0.6835996944614389  0.7591447510942121  1.0000
  H   H62       1.0  0.6691794137189524  0.1835996947955051  0.7591447507225259  1.0000
  H   H63       1.0  0.8308205863514025  0.6835996944614389  0.2408552498528471  1.0000
  H   H64       1.0  0.3308205862280289  0.1835996947955051  0.24085524880848694  1.0000
  H   H65       1.0  0.2613999705985139  0.8642096306990193  0.012034208611015495  1.0000
  H   H66       1.0  0.7613999706914932  0.3642096310330855  0.012034208239329264  1.0000
  H   H67       1.0  0.7386000293788618  0.8642096306990193  0.9879657923360439  1.0000
  H   H68       1.0  0.23860002925548818  0.3642096310330855  0.9879657912916835  1.0000
  H   H69       1.0  0.21644483109392526  0.7578461164035818  0.03762358274035634  1.0000
  H   H70       1.0  0.7164448311869046  0.25784611594744605  0.03762358236867011  1.0000
  H   H71       1.0  0.7835551688834503  0.7578461164035818  0.9623764182067029  1.0000
  H   H72       1.0  0.2835551687600768  0.25784611594744605  0.9623764171623428  1.0000
  H   H73       1.0  0.445955727352358  0.47763358768151704  0.5235322466394581  1.0000
  H   H74       1.0  0.9459557274453372  0.9776335881376527  0.523532246267772  1.0000
  H   H75       1.0  0.5540442726250177  0.47763358768151704  0.47646775430760113  1.0000
  H   H76       1.0  0.054044272501644064  0.9776335881376527  0.476467753263241  1.0000
  H   H77       1.0  0.47441050306345084  0.43594340179919155  0.3182737079235322  1.0000
  H   H78       1.0  0.9744105028233444  0.9359434022553272  0.31827370897569496  1.0000
  H   H79       1.0  0.5255894972470104  0.43594340179919155  0.6817262915996781  1.0000
  H   H80       1.0  0.025589497154031242  0.9359434022553272  0.6817262919713643  1.0000
  H   H81       1.0  0.4373192786069951  0.3469775258175815  0.43481194243797694  1.0000
  H   H82       1.0  0.9373192786999743  0.8469775254835151  0.4348119420662906  1.0000
  H   H83       1.0  0.5626807213399861  0.3469775258175815  0.565188057093036  1.0000
  H   H84       1.0  0.06268072124700692  0.8469775254835151  0.5651880574647222  1.0000
  H   H85       1.0  0.2997064074133531  0.7346518492790648  0.24633545853290698  1.0000
  H   H86       1.0  0.7997064075367268  0.234651848822929  0.24633545957726716  1.0000
  H   H87       1.0  0.7002935925336281  0.7346518492790648  0.7536645409981059  1.0000
  H   H88       1.0  0.2002935924406489  0.234651848822929  0.7536645413697921  1.0000
  H   H89       1.0  0.2989900642005465  0.6559347701491697  0.4534448706944877  1.0000
  H   H90       1.0  0.7989900639300457  0.15593476969303402  0.45344487033060404  1.0000
  H   H91       1.0  0.7010099361099148  0.6559347701491697  0.5465551288287225  1.0000
  H   H92       1.0  0.20100993601693554  0.15593476969303402  0.5465551292004087  1.0000
  H   H93       1.0  0.2530239673382129  0.6396137694363584  0.2658991431369461  1.0000
  H   H94       1.0  0.7530239670677122  0.1396137697704246  0.2658991427730625  1.0000
  H   H95       1.0  0.7469760326087683  0.6396137694363584  0.7341008563940667  1.0000
  H   H96       1.0  0.24697603287926911  0.1396137697704246  0.7341008567579503  1.0000
  H   H97       1.0  0.4064034375145471  0.20890391113582163  0.6228888552294523  1.0000
  H   H98       1.0  0.9064034376379208  0.7089039115919573  0.6228888562738125  1.0000
  H   H99       1.0  0.5935965624324342  0.20890391113582163  0.37711114430156056  1.0000
  H   H100      1.0  0.09359656233945496  0.7089039115919573  0.3771111446732468  1.0000
  H   H101      1.0  0.45137985936685904  0.11519071638828342  0.5715877505308284  1.0000
  H   H102      1.0  0.9513798594598383  0.6151907168444192  0.5715877501591423  1.0000
  H   H103      1.0  0.5486201406105167  0.11519071638828342  0.42841225041623077  1.0000
  H   H104      1.0  0.048620140487143075  0.6151907168444192  0.42841224937187067  1.0000
  H   H105      1.0  0.39561690825650464  0.07268177533225235  0.6568904180189301  1.0000
  H   H106      1.0  0.8956169080163983  0.5726817757883881  0.6568904190710929  1.0000
  H   H107      1.0  0.6043830916904767  0.07268177533225235  0.3431095815120827  1.0000
  H   H108      1.0  0.1043830919609774  0.5726817757883881  0.3431095818759663  1.0000
  H   H109      1.0  0.5135906639697074  0.2153985783291247  0.7944261294404099  1.0000
  H   H110      1.0  0.01359066424020824  0.7153985779950583  0.7944261298042936  1.0000
  H   H111      1.0  0.4864093359772738  0.2153985783291247  0.2055738700906029  1.0000
  H   H112      1.0  0.9864093361006474  0.7153985779950583  0.20557387113496306  1.0000
  H   H113      1.0  0.4706016252227082  0.30570953775958604  0.8685325331938728  1.0000
  H   H114      1.0  0.9706016253460817  0.8057095374255198  0.868532534238233  1.0000
  H   H115      1.0  0.5293983747242731  0.30570953775958604  0.13146746633714  1.0000
  H   H116      1.0  0.02939837499477388  0.8057095374255198  0.13146746670102363  1.0000
  H   H117      1.0  0.46144675136416335  0.06592297521370712  0.9206158038895492  1.0000
  H   H118      1.0  0.9614467514571424  0.5659229756698428  0.9206158035178631  1.0000
  H   H119      1.0  0.5385532486132123  0.06592297521370712  0.07938419705751004  1.0000
  H   H120      1.0  0.0385532485202331  0.5659229756698428  0.07938419742919628  1.0000
  H   H121      1.0  0.4179035461162227  0.1610982578321264  0.9697668702034736  1.0000
  H   H122      1.0  0.9179035462092019  0.6610982582882621  0.9697668698317875  1.0000
  H   H123      1.0  0.5820964538611529  0.1610982578321264  0.030233130743585596  1.0000
  H   H124      1.0  0.08209645373777935  0.6610982582882621  0.030233129699225425  1.0000
  C   C1        1.0  0.44140785163374  0.6943375781575757  0.7560276299926071  1.0000
  C   C2        1.0  0.9414078513632392  0.19433757770144  0.7560276296287235  1.0000
  C   C3        1.0  0.5585921483436357  0.6943375781575757  0.2439723709544521  1.0000
  C   C4        1.0  0.058592148583742065  0.19433757770144  0.2439723699022893  1.0000
  C   C5        1.0  0.3237951570865243  0.5735505072884772  0.2168572075838967  1.0000
  C   C6        1.0  0.8237951571795036  0.07355050683234145  0.21685720721221047  1.0000
  C   C7        1.0  0.676204842860457  0.5735505072884772  0.7831427919471161  1.0000
  C   C8        1.0  0.17620484276747778  0.07355050683234145  0.7831427923188023  1.0000
  C   C9        1.0  0.5723541599921776  0.8742011164394801  0.7637102481381175  1.0000
  C   C10       1.0  0.07235415989919841  0.3742011159833444  0.7637102485098038  1.0000
  C   C11       1.0  0.42764584031828357  0.8742011164394801  0.23628975138509264  1.0000
  C   C12       1.0  0.9276458400781773  0.3742011159833444  0.2362897524372554  1.0000
  C   C13       1.0  0.38884857306671644  0.4262319043873863  0.08624556557689922  1.0000
  C   C14       1.0  0.8888485731596957  0.926231904843522  0.08624556520521301  1.0000
  C   C15       1.0  0.6111514269106593  0.4262319043873863  0.91375443537016  1.0000
  C   C16       1.0  0.11115142678728566  0.926231904843522  0.9137544343257998  1.0000
  C   C17       1.0  0.3207792290834815  0.7565610582801275  0.79233065290316  1.0000
  C   C18       1.0  0.8207792292068551  0.25656105861419387  0.7923306539475202  1.0000
  C   C19       1.0  0.6792207708634999  0.7565610582801275  0.2076693466278528  1.0000
  C   C20       1.0  0.17922077077052057  0.25656105861419387  0.20766934699953904  1.0000
  C   C21       1.0  0.2429395879243338  0.7944344538549268  0.951615343309733  1.0000
  C   C22       1.0  0.742939588017313  0.2944344541889931  0.9516153429380466  1.0000
  C   C23       1.0  0.7570604120530419  0.7944344538549268  0.04838465763732631  1.0000
  C   C24       1.0  0.2570604119296683  0.2944344541889931  0.04838465659296613  1.0000
  C   C25       1.0  0.23300376788692478  0.782885799976437  0.7427893962270105  1.0000
  C   C26       1.0  0.733003767979904  0.28288579952030124  0.7427893958553242  1.0000
  C   C27       1.0  0.7669962320600566  0.782885799976437  0.25721060330400236  1.0000
  C   C28       1.0  0.26699623196707734  0.28288579952030124  0.2572106036756886  1.0000
  C   C29       1.0  0.316416310195126  0.5314927952885732  0.03188955263723489  1.0000
  C   C30       1.0  0.8164163099550197  0.0314927948324374  0.031889553689397665  1.0000
  C   C31       1.0  0.6835836901153354  0.5314927952885732  0.9681104468859755  1.0000
  C   C32       1.0  0.18358369002235603  0.0314927948324374  0.9681104472576615  1.0000
  C   C33       1.0  0.5279164725225576  0.9277605956813657  0.7430373981032348  1.0000
  C   C34       1.0  0.02791647242957834  0.42776059522523  0.743037398474921  1.0000
  C   C35       1.0  0.4720835274244237  0.9277605956813657  0.2569626014277781  1.0000
  C   C36       1.0  0.9720835275477973  0.42776059522523  0.25696260247213826  1.0000
  C   C37       1.0  0.27366885166254196  0.7156386050176576  0.8508930101150805  1.0000
  C   C38       1.0  0.7736688513920413  0.2156386045615219  0.8508930097511969  1.0000
  C   C39       1.0  0.7263311486479193  0.7156386050176576  0.1491069894081297  1.0000
  C   C40       1.0  0.2263311485549401  0.2156386045615219  0.14910698977981593  1.0000
  C   C41       1.0  0.36475616745498995  0.5401925188316921  0.33093374994276376  1.0000
  C   C42       1.0  0.8647561675783636  0.0401925191657583  0.3309337509871239  1.0000
  C   C43       1.0  0.6352438324919913  0.5401925188316921  0.669066249588249  1.0000
  C   C44       1.0  0.13524383239901203  0.0401925191657583  0.6690662499599352  1.0000
  C   C45       1.0  0.3492578502146734  0.45710513896004124  0.9632352834586673  1.0000
  C   C46       1.0  0.8492578499441726  0.9571051386259749  0.9632352830947837  1.0000
  C   C47       1.0  0.6507421497323079  0.45710513896004124  0.0367647160723455  1.0000
  C   C48       1.0  0.15074215000280866  0.9571051386259749  0.03676471643622913  1.0000
  C   C49       1.0  0.31288117737233173  0.8623564860749828  0.6974682897858354  1.0000
  C   C50       1.0  0.8128811774957053  0.36235648561884715  0.6974682908301956  1.0000
  C   C51       1.0  0.6871188225746495  0.8623564860749828  0.30253170974517735  1.0000
  C   C52       1.0  0.18711882248167036  0.36235648561884715  0.30253171011686353  1.0000
  C   C53       1.0  0.5743197196259895  0.7641395420597451  0.7744181072740971  1.0000
  C   C54       1.0  0.07431971953301023  0.26413954160360936  0.7744181076457833  1.0000
  C   C55       1.0  0.42568028032099187  0.7641395420597451  0.22558189225691577  1.0000
  C   C56       1.0  0.925680280413971  0.26413954160360936  0.22558189188522954  1.0000
  C   C57       1.0  0.18562296705077538  0.7366221650577558  0.6597145942762933  1.0000
  C   C58       1.0  0.685622967174149  0.23662216539182213  0.6597145953206535  1.0000
  C   C59       1.0  0.814377032896206  0.7366221650577558  0.34028540525471956  1.0000
  C   C60       1.0  0.3143770328032267  0.23662216539182213  0.3402854056264058  1.0000
  C   C61       1.0  0.4846992244469838  0.8700650410571358  0.7371984977994462  1.0000
  C   C62       1.0  0.9846992241764831  0.37006504139120205  0.7371984974355626  1.0000
  C   C63       1.0  0.5153007758634774  0.8700650410571358  0.262801501723764  1.0000
  C   C64       1.0  0.015300775770498246  0.37006504139120205  0.2628015020954502  1.0000
  C   C65       1.0  0.3976179110141418  0.46622497656477885  0.26922706783828143  1.0000
  C   C66       1.0  0.8976179111071211  0.9662249762307126  0.26922706746659514  1.0000
  C   C67       1.0  0.6023820889328395  0.46622497656477885  0.7307729316927315  1.0000
  C   C68       1.0  0.10238208920334023  0.9662249762307126  0.730772932056615  1.0000
  C   C69       1.0  0.5310068042995786  0.7072555517708922  0.766262845671149  1.0000
  C   C70       1.0  0.031006804176204973  0.2072555521049584  0.7662628446267888  1.0000
  C   C71       1.0  0.4689931956777971  0.7072555517708922  0.2337371552759103  1.0000
  C   C72       1.0  0.9689931957707764  0.2072555521049584  0.23373715490422406  1.0000
  C   C73       1.0  0.2589693693833683  0.8612361795400602  0.621840873154804  1.0000
  C   C74       1.0  0.7589693695067419  0.3612361790839244  0.6218408741991642  1.0000
  C   C75       1.0  0.7410306305636131  0.8612361795400602  0.3781591263762088  1.0000
  C   C76       1.0  0.2410306304706338  0.3612361790839244  0.37815912674789504  1.0000
  C   C77       1.0  0.34603607390832825  0.4095820911340724  0.7685185153222218  1.0000
  C   C78       1.0  0.8460360736378275  0.9095820908000061  0.7685185149583383  1.0000
  C   C79       1.0  0.6539639260386529  0.4095820911340724  0.2314814842087909  1.0000
  C   C80       1.0  0.1539639263091538  0.9095820908000061  0.23148148457267453  1.0000
  C   C81       1.0  0.48592271360386124  0.7595424462281166  0.7495918080248485  1.0000
  C   C82       1.0  0.9859227133637548  0.2595424465621829  0.7495918090770113  1.0000
  C   C83       1.0  0.51407728634312  0.7595424462281166  0.2504081915061643  1.0000
  C   C84       1.0  0.0140772866136208  0.2595424465621829  0.2504081918700479  1.0000
  C   C85       1.0  0.44110737360032426  0.43037274626827987  0.3939078914015481  1.0000
  C   C86       1.0  0.9411073737236979  0.9303727459342136  0.3939078924459081  1.0000
  C   C87       1.0  0.558892626346657  0.43037274626827987  0.6060921081294648  1.0000
  C   C88       1.0  0.058892626617157794  0.9303727459342136  0.6060921084933484  1.0000
  C   C89       1.0  0.29187123824628236  0.6552953845110548  0.29942627172589403  1.0000
  C   C90       1.0  0.7918712383392615  0.15529538484512115  0.2994262713542078  1.0000
  C   C91       1.0  0.7081287617310933  0.6552953845110548  0.7005737292211652  1.0000
  C   C92       1.0  0.2081287616077197  0.15529538484512115  0.7005737281768051  1.0000
  C   C93       1.0  0.48667933065752106  0.22726701589990358  0.9004316092078567  1.0000
  C   C94       1.0  0.9866793307505002  0.7272670163560394  0.9004316088361705  1.0000
  C   C95       1.0  0.5133206692894603  0.22726701589990358  0.09956839032315612  1.0000
  C   C96       1.0  0.013320669559961062  0.7272670163560394  0.09956839068703975  1.0000
  C   C97       1.0  0.4465863480393099  0.14326135649127184  0.8739630559083041  1.0000
  C   C98       1.0  0.9465863481322891  0.6432613561572056  0.8739630555366181  1.0000
  C   C99       1.0  0.5534136519076713  0.14326135649127184  0.12603694362270862  1.0000
  C   C100      1.0  0.05341365181469212  0.6432613561572056  0.12603694399439486  1.0000
  C   C101      1.0  0.42380323342720977  0.13439349139298096  0.670934191427863  1.0000
  C   C102      1.0  0.923803233520189  0.6343934910589146  0.6709341910561768  1.0000
  C   C103      1.0  0.5761967665501659  0.13439349139298096  0.3290658095191963  1.0000
  C   C104      1.0  0.0761967664267923  0.6343934910589146  0.32906580847483613  1.0000
  N   N1        1.0  0.3596113373695571  0.700267089709567  0.8184010263715823  1.0000
  N   N2        1.0  0.8596113374625363  0.2002670892534313  0.8184010259998958  1.0000
  N   N3        1.0  0.6403886626078187  0.700267089709567  0.18159897457547702  1.0000
  N   N4        1.0  0.14038866248444498  0.2002670892534313  0.18159897353111684  1.0000
  O   O1        1.0  0.22130818966593335  0.564539540556438  0.9871850950825278  1.0000
  O   O2        1.0  0.7213081897589125  0.06453954010030219  0.9871850947108416  1.0000
  O   O3        1.0  0.7786918103114423  0.564539540556438  0.012814905864531507  1.0000
  O   O4        1.0  0.2786918101880687  0.06453954010030219  0.012814904820171337  1.0000
  O   O5        1.0  0.2641453088399183  0.5287992803049367  0.6984438276303849  1.0000
  O   O6        1.0  0.764145308599812  0.02879928063900299  0.6984438286825478  1.0000
  O   O7        1.0  0.735854691107063  0.5287992803049367  0.30155617190062783  1.0000
  O   O8        1.0  0.23585469137756374  0.02879928063900299  0.3015561722645115  1.0000
  O   O9        1.0  0.4004948328972152  0.757593801739663  0.7563931685649712  1.0000
  O   O10       1.0  0.9004948330205889  0.2575938012835272  0.7563931696093313  1.0000
  O   O11       1.0  0.5995051670497661  0.757593801739663  0.24360683096604166  1.0000
  O   O12       1.0  0.09950516695678689  0.2575938012835272  0.2436068313377279  1.0000
  O   O13       1.0  0.44050685631831904  0.5981562996275973  0.7636079368232379  1.0000
  O   O14       1.0  0.9405068564416926  0.09815629917146163  0.7636079378675981  1.0000
  O   O15       1.0  0.5594931436286622  0.5981562996275973  0.236392062707775  1.0000
  O   O16       1.0  0.059493143899162965  0.09815629917146163  0.2363920630716586  1.0000
  S   S1        1.0  0.26493941969497575  0.5770898829553078  0.8842906200743934  1.0000
  S   S2        1.0  0.7649394197879549  0.07708988249917209  0.8842906197027073  1.0000
  S   S3        1.0  0.7350605802520056  0.5770898829553078  0.11570937945661938  1.0000
  S   S4        1.0  0.23506058015902634  0.07708988249917209  0.1157093798283056  1.0000
  Br  Br1       1.0  0.6316084257812934  0.9524885896011627  0.7872977326587679  1.0000
  Br  Br2       1.0  0.1316084256579199  0.45248858993522895  0.7872977316144077  1.0000
  Br  Br3       1.0  0.3683915741960822  0.9524885896011627  0.2127022682882913  1.0000
  Br  Br4       1.0  0.8683915742890613  0.45248858993522895  0.21270226791660507  1.0000
