data_image0
_chemical_formula_structural       H128C88N16O24
_chemical_formula_sum              "H128 C88 N16 O24"
_cell_length_a       7.335351834390694
_cell_length_b       18.18540669689464
_cell_length_c       17.119442323443348
_cell_angle_alpha    90.0
_cell_angle_beta     90.0
_cell_angle_gamma    90.0

_space_group_name_H-M_alt    "P 1"
_space_group_IT_number       1

loop_
  _space_group_symop_operation_xyz
  'x, y, z'

loop_
  _atom_site_type_symbol
  _atom_site_label
  _atom_site_symmetry_multiplicity
  _atom_site_fract_x
  _atom_site_fract_y
  _atom_site_fract_z
  _atom_site_occupancy
  H   H1        1.0  0.012839609077568296  0.35943549566676325  0.49087575057817334  1.0000
  H   H2        1.0  0.9871603916871265  0.6405645039541065  0.9908757504776049  1.0000
  H   H3        1.0  0.4871603913047791  0.35943549566676325  0.9908757504776049  1.0000
  H   H4        1.0  0.5128396080966546  0.6405645039541065  0.49087575057817334  1.0000
  H   H5        1.0  0.8340116040948113  0.17605168492309298  0.33447604786510843  1.0000
  H   H6        1.0  0.1659883966698835  0.8239483152476682  0.8344760483486713  1.0000
  H   H7        1.0  0.6659883956889698  0.17605168492309298  0.8344760483486713  1.0000
  H   H8        1.0  0.3340116037124639  0.8239483152476682  0.33447604786510843  1.0000
  H   H9        1.0  0.03587009811395855  0.19497276190174295  0.28177281764571865  1.0000
  H   H10       1.0  0.9641299026507363  0.8050272382690182  0.7817728175451503  1.0000
  H   H11       1.0  0.4641299022683889  0.19497276190174295  0.7817728175451503  1.0000
  H   H12       1.0  0.535870098496306  0.8050272382690182  0.28177281764571865  1.0000
  H   H13       1.0  0.960025518746634  0.3329320680539894  0.6062133452669969  1.0000
  H   H14       1.0  0.03997448201806079  0.6670679321167717  0.10621334536756513  1.0000
  H   H15       1.0  0.5399744824004082  0.3329320680539894  0.10621334536756513  1.0000
  H   H16       1.0  0.4600255183642866  0.6670679321167717  0.6062133452669969  1.0000
  H   H17       1.0  0.06645429435498794  0.34916293519486025  0.6970024744123778  1.0000
  H   H18       1.0  0.9335457050464457  0.6508370644260095  0.197002473928815  1.0000
  H   H19       1.0  0.4335457060273595  0.34916293519486025  0.197002473928815  1.0000
  H   H20       1.0  0.5664542947373353  0.6508370644260095  0.6970024744123778  1.0000
  H   H21       1.0  0.01699715471253281  0.6284917346364155  0.45476661113772077  1.0000
  H   H22       1.0  0.9830028460521619  0.3715082649844541  0.9547666110371524  1.0000
  H   H23       1.0  0.4830028456698146  0.6284917346364155  0.9547666110371524  1.0000
  H   H24       1.0  0.5169971537316191  0.3715082649844541  0.45476661113772077  1.0000
  H   H25       1.0  0.8441733238981521  0.30019113022818467  0.41011878817953334  1.0000
  H   H26       1.0  0.15582667550328158  0.699808869392685  0.910118788078965  1.0000
  H   H27       1.0  0.655826675885629  0.30019113022818467  0.910118788078965  1.0000
  H   H28       1.0  0.3441733235158047  0.699808869392685  0.41011878817953334  1.0000
  H   H29       1.0  0.06389463935494123  0.3073884034144011  0.36705082275928463  1.0000
  H   H30       1.0  0.9361053614097535  0.6926115962064686  0.8670508226587164  1.0000
  H   H31       1.0  0.43610536102740616  0.3073884034144011  0.8670508226587164  1.0000
  H   H32       1.0  0.5638946383740275  0.6926115962064686  0.36705082275928463  1.0000
  H   H33       1.0  0.6546585846756302  0.17233952323624285  0.2117621089231153  1.0000
  H   H34       1.0  0.3453414147258035  0.8276604769345183  0.711762108822547  1.0000
  H   H35       1.0  0.845341415108151  0.17233952323624285  0.711762108822547  1.0000
  H   H36       1.0  0.15465858565654395  0.8276604769345183  0.2117621089231153  1.0000
  H   H37       1.0  0.84905383553662  0.19708478230580456  0.156577104519889  1.0000
  H   H38       1.0  0.15094616386481377  0.8029152178649567  0.6565771050034518  1.0000
  H   H39       1.0  0.6509461642471611  0.19708478230580456  0.6565771050034518  1.0000
  H   H40       1.0  0.34905383651753363  0.8029152178649567  0.156577104519889  1.0000
  H   H41       1.0  0.004540901479849303  0.08150068264643699  0.19544494363686815  1.0000
  H   H42       1.0  0.9954590979215845  0.9184993175243241  0.695444944120431  1.0000
  H   H43       1.0  0.4954590989024981  0.08150068264643699  0.695444944120431  1.0000
  H   H44       1.0  0.5045409018621967  0.9184993175243241  0.19544494363686815  1.0000
  H   H45       1.0  0.8163200014382661  0.05797587964749978  0.2569033918807813  1.0000
  H   H46       1.0  0.18367999796316756  0.9420241205232613  0.7569033917802129  1.0000
  H   H47       1.0  0.683679998345515  0.05797587964749978  0.7569033917802129  1.0000
  H   H48       1.0  0.31632000241917985  0.9420241205232613  0.2569033918807813  1.0000
  H   H49       1.0  0.6974716381037739  0.2945112231619524  0.28133069810367983  1.0000
  H   H50       1.0  0.30252836129765986  0.7054887770088089  0.7813306980031115  1.0000
  H   H51       1.0  0.8025283616800073  0.2945112231619524  0.7813306980031115  1.0000
  H   H52       1.0  0.19747163908468757  0.7054887770088089  0.28133069810367983  1.0000
  H   H53       1.0  0.9053214951279317  0.312749310741079  0.23354866090029333  1.0000
  H   H54       1.0  0.09467850563676311  0.6872506894296823  0.733548660799725  1.0000
  H   H55       1.0  0.5946785046558495  0.312749310741079  0.733548660799725  1.0000
  H   H56       1.0  0.4053214947455843  0.6872506894296823  0.23354866090029333  1.0000
  H   H57       1.0  0.11405485093129064  0.2188705265898547  0.4974637268608794  1.0000
  H   H58       1.0  0.885945148470143  0.7811294735809065  0.9974637273444422  1.0000
  H   H59       1.0  0.3859451480877957  0.2188705265898547  0.9974637273444422  1.0000
  H   H60       1.0  0.6140548513136381  0.7811294735809065  0.4974637268608794  1.0000
  H   H61       1.0  0.947519307446734  0.20724638127799336  0.57125276251598  1.0000
  H   H62       1.0  0.05248069195469979  0.7927536188927679  0.07125276261654837  1.0000
  H   H63       1.0  0.5524806923370472  0.20724638127799336  0.07125276261654837  1.0000
  H   H64       1.0  0.44751930842764764  0.7927536188927679  0.57125276251598  1.0000
  H   H65       1.0  0.3673025508290155  0.32429600988836044  0.6457239167693021  1.0000
  H   H66       1.0  0.6326974485724183  0.6757039902824008  0.14572391686987043  1.0000
  H   H67       1.0  0.13269744819007082  0.32429600988836044  0.14572391686987043  1.0000
  H   H68       1.0  0.8673025512113629  0.6757039902824008  0.6457239167693021  1.0000
  H   H69       1.0  0.28874596581309514  0.3215189018015436  0.5485056617259776  1.0000
  H   H70       1.0  0.7112540349515998  0.6784810983692177  0.048505661826545886  1.0000
  H   H71       1.0  0.2112540345692523  0.3215189018015436  0.048505661826545886  1.0000
  H   H72       1.0  0.7887459648321814  0.6784810983692177  0.5485056617259776  1.0000
  H   H73       1.0  0.35622312589687105  0.1981526951836241  0.6066579491189329  1.0000
  H   H74       1.0  0.6437768748678239  0.8018473044372456  0.10665794863537001  1.0000
  H   H75       1.0  0.1437768744854764  0.1981526951836241  0.10665794863537001  1.0000
  H   H76       1.0  0.8562231249159573  0.8018473044372456  0.6066579491189329  1.0000
  H   H77       1.0  0.17838811546367947  0.20983244662059747  0.6744901902667526  1.0000
  H   H78       1.0  0.8216118853010154  0.7901675535501637  0.17449019036732089  1.0000
  H   H79       1.0  0.321611884918668  0.20983244662059747  0.17449019036732089  1.0000
  H   H80       1.0  0.6783881144827658  0.7901675535501637  0.6744901902667526  1.0000
  H   H81       1.0  0.007973032694328563  0.09054353347407788  0.5019394006913916  1.0000
  H   H82       1.0  0.9920269680703663  0.9094564661467919  0.0019394007919600253  1.0000
  H   H83       1.0  0.49202696768801885  0.09054353347407788  0.0019394007919600253  1.0000
  H   H84       1.0  0.507973033076676  0.9094564661467919  0.5019394006913916  1.0000
  H   H85       1.0  0.24505982133975124  0.09776417374837117  0.5232509336903601  1.0000
  H   H86       1.0  0.7549401780616826  0.9022358264223901  0.023250933790928477  1.0000
  H   H87       1.0  0.2549401776793351  0.09776417374837117  0.023250933790928477  1.0000
  H   H88       1.0  0.7450598217220986  0.9022358264223901  0.5232509336903601  1.0000
  H   H89       1.0  0.8170433518814069  0.004683541667206381  0.12749577169409734  1.0000
  H   H90       1.0  0.18295664752002677  0.9953164585035548  0.6274957721776602  1.0000
  H   H91       1.0  0.6829566479023742  0.004683541667206381  0.6274957721776602  1.0000
  H   H92       1.0  0.31704335286232066  0.9953164585035548  0.12749577169409734  1.0000
  H   H93       1.0  0.9509976109522834  0.0661821129469444  0.6282180696547847  1.0000
  H   H94       1.0  0.04900238981241142  0.9338178866739253  0.1282180697553529  1.0000
  H   H95       1.0  0.5490023888314978  0.0661821129469444  0.1282180697553529  1.0000
  H   H96       1.0  0.450997610569936  0.9338178866739253  0.6282180696547847  1.0000
  H   H97       1.0  0.8584545420816971  0.424588547217836  0.3030631285748827  1.0000
  H   H98       1.0  0.14154545868299778  0.5754114529529253  0.8030631284743144  1.0000
  H   H99       1.0  0.6415454590653452  0.424588547217836  0.8030631284743144  1.0000
  H   H100      1.0  0.35845454169934965  0.5754114529529253  0.3030631285748827  1.0000
  H   H101      1.0  0.1427063968618694  0.46597801969680613  0.660792416964939  1.0000
  H   H102      1.0  0.8572936025395644  0.5340219799240635  0.16079241706550731  1.0000
  H   H103      1.0  0.35729360352047806  0.46597801969680613  0.16079241706550731  1.0000
  H   H104      1.0  0.6427063972442167  0.5340219799240635  0.660792416964939  1.0000
  H   H105      1.0  0.4929069854629994  0.25825815656913437  0.443793567363815  1.0000
  H   H106      1.0  0.5070930139384343  0.7417418436016269  0.9437935672632466  1.0000
  H   H107      1.0  0.007093013556086886  0.25825815656913437  0.9437935672632466  1.0000
  H   H108      1.0  0.9929069858453468  0.7417418436016269  0.443793567363815  1.0000
  H   H109      1.0  0.661195391782168  0.16489884828982518  0.522302483402481  1.0000
  H   H110      1.0  0.3388046076192657  0.835101151880936  0.022302483503049343  1.0000
  H   H111      1.0  0.838804608001613  0.16489884828982518  0.022302483503049343  1.0000
  H   H112      1.0  0.1611953913998206  0.835101151880936  0.522302483402481  1.0000
  H   H113      1.0  0.3346467170792364  0.22156843655787198  0.3219165213374503  1.0000
  H   H114      1.0  0.6653532836854585  0.7784315636128892  0.821916521236882  1.0000
  H   H115      1.0  0.16535328330311105  0.22156843655787198  0.821916521236882  1.0000
  H   H116      1.0  0.8346467160983226  0.7784315636128892  0.3219165213374503  1.0000
  H   H117      1.0  0.34143486863954065  0.0907067566589906  0.27802926521047144  1.0000
  H   H118      1.0  0.6585651307618932  0.9092932429618791  0.7780292651099031  1.0000
  H   H119      1.0  0.15856513037954567  0.0907067566589906  0.7780292651099031  1.0000
  H   H120      1.0  0.841434869021888  0.9092932429618791  0.27802926521047144  1.0000
  H   H121      1.0  0.5092213767426292  0.9974242095502522  0.35707905050323235  1.0000
  H   H122      1.0  0.4907786226588045  0.002575790620508848  0.8570790504026641  1.0000
  H   H123      1.0  0.9907786230411518  0.9974242095502522  0.8570790504026641  1.0000
  H   H124      1.0  0.009221377723542914  0.002575790620508848  0.35707905050323235  1.0000
  H   H125      1.0  0.6700826001222455  0.03536101450564802  0.47885073036369513  1.0000
  H   H126      1.0  0.3299173992791882  0.9646389856651131  0.9788507302631269  1.0000
  H   H127      1.0  0.8299173996615355  0.03536101450564802  0.9788507302631269  1.0000
  H   H128      1.0  0.17008260110315926  0.9646389856651131  0.47885073036369513  1.0000
  C   C1        1.0  0.9509191334623148  0.4465155646690372  0.41163542870493436  1.0000
  C   C2        1.0  0.04908086730238008  0.5534844349518325  0.9116354286043661  1.0000
  C   C3        1.0  0.5490808663214664  0.4465155646690372  0.9116354286043661  1.0000
  C   C4        1.0  0.45091913307996734  0.5534844349518325  0.41163542870493436  1.0000
  C   C5        1.0  0.012590767571228793  0.41859667077447843  0.4832942115567612  1.0000
  C   C6        1.0  0.9874092318302049  0.5814033293962827  0.9832942114561928  1.0000
  C   C7        1.0  0.4874092328111186  0.41859667077447843  0.9832942114561928  1.0000
  C   C8        1.0  0.5125907679535763  0.5814033293962827  0.4832942115567612  1.0000
  C   C9        1.0  0.9470488964728769  0.5257884511118888  0.4033641984087176  1.0000
  C   C10       1.0  0.05295110292855686  0.474211548508981  0.9033641983081493  1.0000
  C   C11       1.0  0.5529511033109042  0.5257884511118888  0.9033641983081493  1.0000
  C   C12       1.0  0.44704889745379056  0.474211548508981  0.4033641984087176  1.0000
  C   C13       1.0  0.8869361370640261  0.2033954555787645  0.28168667640512574  1.0000
  C   C14       1.0  0.11306386233740763  0.7966045445919967  0.7816866763045573  1.0000
  C   C15       1.0  0.6130638627197551  0.2033954555787645  0.7816866763045573  1.0000
  C   C16       1.0  0.38693613668167864  0.7966045445919967  0.28168667640512574  1.0000
  C   C17       1.0  0.08562624727218317  0.35341043932206734  0.6336124831091023  1.0000
  C   C18       1.0  0.9143737534925117  0.6465895608486939  0.1336124826255395  1.0000
  C   C19       1.0  0.4143737531101643  0.35341043932206734  0.1336124826255395  1.0000
  C   C20       1.0  0.5856262462912695  0.6465895608486939  0.6336124831091023  1.0000
  C   C21       1.0  0.07358696381396367  0.5409230617690701  0.5334869762371452  1.0000
  C   C22       1.0  0.9264130369507312  0.4590769378517996  0.03348697575358242  1.0000
  C   C23       1.0  0.4264130365683838  0.5409230617690701  0.03348697575358242  1.0000
  C   C24       1.0  0.57358696283305  0.4590769378517996  0.5334869762371452  1.0000
  C   C25       1.0  0.013263247925459784  0.569457476129383  0.46322316113887063  1.0000
  C   C26       1.0  0.986736751475974  0.4305425240413782  0.9632231610383024  1.0000
  C   C27       1.0  0.4867367510936265  0.569457476129383  0.9632231610383024  1.0000
  C   C28       1.0  0.5132632483078072  0.4305425240413782  0.46322316113887063  1.0000
  C   C29       1.0  0.918365872842903  0.3212539151515159  0.35862448752741444  1.0000
  C   C30       1.0  0.0816341279217918  0.6787460844693538  0.8586244874268462  1.0000
  C   C31       1.0  0.5816341283041393  0.3212539151515159  0.8586244874268462  1.0000
  C   C32       1.0  0.4183658724605556  0.6787460844693538  0.35862448752741444  1.0000
  C   C33       1.0  0.06616709613361252  0.46220855162042235  0.547187720430127  1.0000
  C   C34       1.0  0.9338329032678212  0.5377914480004474  0.047187720530695206  1.0000
  C   C35       1.0  0.4338329042487349  0.46220855162042235  0.047187720530695206  1.0000
  C   C36       1.0  0.56616709651596  0.5377914480004474  0.547187720430127  1.0000
  C   C37       1.0  0.804204645282704  0.1676255412269959  0.20943686437087375  1.0000
  C   C38       1.0  0.1957953554819909  0.8323744589437653  0.7094368642703055  1.0000
  C   C39       1.0  0.6957953545010772  0.1676255412269959  0.7094368642703055  1.0000
  C   C40       1.0  0.30420464490035654  0.8323744589437653  0.20943686437087375  1.0000
  C   C41       1.0  0.8553841099458579  0.08719057464196049  0.20272188278280073  1.0000
  C   C42       1.0  0.14461589081883694  0.9128094249789093  0.7027218826822325  1.0000
  C   C43       1.0  0.6446158912011845  0.08719057464196049  0.7027218826822325  1.0000
  C   C44       1.0  0.35538410956351046  0.9128094249789093  0.20272188278280073  1.0000
  C   C45       1.0  0.8456764542522145  0.28540974180612083  0.2848380868880549  1.0000
  C   C46       1.0  0.15432354651248031  0.7145902583646404  0.7848380867874866  1.0000
  C   C47       1.0  0.6543235468948276  0.28540974180612083  0.7848380867874866  1.0000
  C   C48       1.0  0.3456764538698671  0.7145902583646404  0.2848380868880549  1.0000
  C   C49       1.0  0.0888731276587977  0.19369581822998194  0.5551495522132422  1.0000
  C   C50       1.0  0.9111268717426361  0.8063041819407792  0.055149551729679294  1.0000
  C   C51       1.0  0.4111268713602886  0.19369581822998194  0.055149551729679294  1.0000
  C   C52       1.0  0.5888731280411451  0.8063041819407792  0.5551495522132422  1.0000
  C   C53       1.0  0.25131781973388184  0.307909125890276  0.609096707298738  1.0000
  C   C54       1.0  0.7486821810308131  0.6920908737305936  0.10909670739930634  1.0000
  C   C55       1.0  0.2486821806484656  0.307909125890276  0.10909670739930634  1.0000
  C   C56       1.0  0.7513178187529681  0.6920908737305936  0.609096707298738  1.0000
  C   C57       1.0  0.22307046164145145  0.22491736303584842  0.6151342573571567  1.0000
  C   C58       1.0  0.7769295377599823  0.7750826365850213  0.11513425745772499  1.0000
  C   C59       1.0  0.276929538740896  0.22491736303584842  0.11513425745772499  1.0000
  C   C60       1.0  0.7230704620237989  0.7750826365850213  0.6151342573571567  1.0000
  C   C61       1.0  0.10770723856705458  0.11085859577417402  0.5451248909679989  1.0000
  C   C62       1.0  0.8922927608343791  0.8891414043965873  0.0451248910685672  1.0000
  C   C63       1.0  0.3922927604520317  0.11085859577417402  0.0451248910685672  1.0000
  C   C64       1.0  0.607707238949402  0.8891414043965873  0.5451248909679989  1.0000
  C   C65       1.0  0.49661719195540016  0.2011626498638979  0.42469675720941485  1.0000
  C   C66       1.0  0.5033828088092948  0.7988373503068632  0.9246967576929777  1.0000
  C   C67       1.0  0.003382808426947276  0.2011626498638979  0.9246967576929777  1.0000
  C   C68       1.0  0.9966171923377476  0.7988373503068632  0.42469675720941485  1.0000
  C   C69       1.0  0.5913367140296557  0.14901036227376377  0.46873673735336824  1.0000
  C   C70       1.0  0.40866328673503916  0.8509896378969974  0.9687367372528  1.0000
  C   C71       1.0  0.9086632871173866  0.14901036227376377  0.9687367372528  1.0000
  C   C72       1.0  0.09133671364730823  0.8509896378969974  0.46873673735336824  1.0000
  C   C73       1.0  0.40657761308973805  0.1802542612676215  0.35628054902510414  1.0000
  C   C74       1.0  0.5934223863116956  0.8197457389031396  0.8562805489245359  1.0000
  C   C75       1.0  0.09342238729260936  0.1802542612676215  0.8562805489245359  1.0000
  C   C76       1.0  0.9065776134720855  0.8197457389031396  0.35628054902510414  1.0000
  C   C77       1.0  0.41037335740147807  0.10689203614742025  0.33185965130535233  1.0000
  C   C78       1.0  0.5896266433632168  0.893107964023341  0.831859651204784  1.0000
  C   C79       1.0  0.08962664298086938  0.10689203614742025  0.831859651204784  1.0000
  C   C80       1.0  0.9103733564205644  0.893107964023341  0.33185965130535233  1.0000
  C   C81       1.0  0.5055473143924573  0.054705634390342275  0.3759256112675496  1.0000
  C   C82       1.0  0.4944526863722376  0.945294365780419  0.8759256111669813  1.0000
  C   C83       1.0  0.9944526853913239  0.054705634390342275  0.8759256111669813  1.0000
  C   C84       1.0  0.005547314010109784  0.945294365780419  0.3759256112675496  1.0000
  C   C85       1.0  0.5961081279700079  0.07576741081271969  0.444216522146056  1.0000
  C   C86       1.0  0.40389187279468697  0.9242325888081501  0.9442165226296187  1.0000
  C   C87       1.0  0.9038918731770343  0.07576741081271969  0.9442165226296187  1.0000
  C   C88       1.0  0.09610812758766045  0.9242325888081501  0.444216522146056  1.0000
  N   N1        1.0  0.8990844664164385  0.40072508036041865  0.3541868067569395  1.0000
  N   N2        1.0  0.10091553434825644  0.5992749198103425  0.8541868066563711  1.0000
  N   N3        1.0  0.6009155333673427  0.40072508036041865  0.8541868066563711  1.0000
  N   N4        1.0  0.399084466034091  0.5992749198103425  0.3541868067569395  1.0000
  N   N5        1.0  0.14030222588300523  0.5927844028828242  0.5890556105434909  1.0000
  N   N6        1.0  0.8596977735184285  0.407215597287937  0.08905561064405926  1.0000
  N   N7        1.0  0.3596977731360811  0.5927844028828242  0.08905561064405926  1.0000
  N   N8        1.0  0.6403022262653527  0.407215597287937  0.5890556105434909  1.0000
  N   N9        1.0  0.10649286464183441  0.431493856628455  0.6162905204892152  1.0000
  N   N10       1.0  0.8935071347595993  0.5685061435423062  0.11629052058978352  1.0000
  N   N11       1.0  0.393507135740513  0.431493856628455  0.11629052058978352  1.0000
  N   N12       1.0  0.6064928650241818  0.5685061435423062  0.6162905204892152  1.0000
  N   N13       1.0  0.8783943122934349  0.5629283117296516  0.3365112870593366  1.0000
  N   N14       1.0  0.12160568847125997  0.43707168789121803  0.8365112869587682  1.0000
  N   N15       1.0  0.6216056874903463  0.5629283117296516  0.8365112869587682  1.0000
  N   N16       1.0  0.37839431191108747  0.43707168789121803  0.3365112870593366  1.0000
  O   O1        1.0  0.15979901257147625  0.6586580949022917  0.5692768774748138  1.0000
  O   O2        1.0  0.8402009881932185  0.341341904718578  0.06927687699125094  1.0000
  O   O3        1.0  0.34020098781087116  0.6586580949022917  0.06927687699125094  1.0000
  O   O4        1.0  0.6597990115905625  0.341341904718578  0.5692768774748138  1.0000
  O   O5        1.0  0.810470808247717  0.5251456059891565  0.28185700905644157  1.0000
  O   O6        1.0  0.18952919251697778  0.4748543941816047  0.7818570089558732  1.0000
  O   O7        1.0  0.6895291928993251  0.5251456059891565  0.7818570089558732  1.0000
  O   O8        1.0  0.3104708078653696  0.4748543941816047  0.28185700905644157  1.0000
  O   O9        1.0  0.17875789322775112  0.5706397389381477  0.6566774517301467  1.0000
  O   O10       1.0  0.8212421061736827  0.429360260682722  0.15667745183071508  1.0000
  O   O11       1.0  0.32124210579133516  0.5706397389381477  0.15667745183071508  1.0000
  O   O12       1.0  0.6787578936100985  0.429360260682722  0.6566774517301467  1.0000
  O   O13       1.0  0.8842889443405685  0.6317590561206333  0.33349972400570843  1.0000
  O   O14       1.0  0.11571105506086517  0.36824094350023645  0.83349972390514  1.0000
  O   O15       1.0  0.6157110554432127  0.6317590561206333  0.83349972390514  1.0000
  O   O16       1.0  0.3842889439582211  0.36824094350023645  0.33349972400570843  1.0000
  O   O17       1.0  0.08590693319516059  0.07231107403413485  0.6179099786161915  1.0000
  O   O18       1.0  0.9140930662062732  0.9276889255867349  0.11790997871675969  1.0000
  O   O19       1.0  0.41409306582392574  0.07231107403413485  0.11790997871675969  1.0000
  O   O20       1.0  0.585906933577508  0.9276889255867349  0.6179099786161915  1.0000
  O   O21       1.0  0.764207244118596  0.05545515680835492  0.13672330709013505  1.0000
  O   O22       1.0  0.23579275528283775  0.9445448433624063  0.6367233069895668  1.0000
  O   O23       1.0  0.7357927556651852  0.05545515680835492  0.6367233069895668  1.0000
  O   O24       1.0  0.26420724509950966  0.9445448433624063  0.13672330709013505  1.0000
