data_image0
_chemical_formula_structural       H56C64N14O4Cl6
_chemical_formula_sum              "H56 C64 N14 O4 Cl6"
_cell_length_a       8.09636386550863
_cell_length_b       12.264956078129858
_cell_length_c       15.816534936758181
_cell_angle_alpha    93.45602546396542
_cell_angle_beta     100.9835719746051
_cell_angle_gamma    92.53239054976619

_space_group_name_H-M_alt    "P 1"
_space_group_IT_number       1

loop_
  _space_group_symop_operation_xyz
  'x, y, z'

loop_
  _atom_site_type_symbol
  _atom_site_label
  _atom_site_symmetry_multiplicity
  _atom_site_fract_x
  _atom_site_fract_y
  _atom_site_fract_z
  _atom_site_occupancy
  H   H1        1.0  0.4999521652120127  0.4435371641599913  0.45008762784021034  1.0000
  H   H2        1.0  0.5000478346397822  0.5564628356307944  0.5499123722723546  1.0000
  H   H3        1.0  0.20760945494542438  0.17423547524683766  0.5916437750819948  1.0000
  H   H4        1.0  0.7923905446671595  0.8257645244868452  0.4083562243849415  1.0000
  H   H5        1.0  0.5105192318377385  0.3497976001200042  0.13619981760432612  1.0000
  H   H6        1.0  0.48948076783158795  0.6502024004298207  0.8638001818627794  1.0000
  H   H7        1.0  0.25940617025467466  0.07646090542231573  0.30676292090136437  1.0000
  H   H8        1.0  0.7405938295971202  0.92353909436847  0.6932370792112004  1.0000
  H   H9        1.0  0.7555760313360385  0.31724586346528516  0.9133398331417957  1.0000
  H   H10       1.0  0.24442396857249896  0.6827541371416425  0.0866601669709383  1.0000
  H   H11       1.0  0.5539807997551115  0.45179400038864714  0.8488121074917119  1.0000
  H   H12       1.0  0.44601920009668333  0.5482059994021385  0.1511878926208529  1.0000
  H   H13       1.0  0.2704256840197416  0.4556966236661901  0.8841360780171763  1.0000
  H   H14       1.0  0.7295743158320533  0.5443033761245956  0.11586392209538858  1.0000
  H   H15       1.0  0.6495127097278953  0.07348075674031083  0.9958390612289049  1.0000
  H   H16       1.0  0.3504872901806422  0.9265192438666168  0.004160938883829145  1.0000
  H   H17       1.0  0.7040035877358628  0.16019548091020963  0.09102114388752229  1.0000
  H   H18       1.0  0.2959964121159319  0.8398045188805761  0.9089788562250425  1.0000
  H   H19       1.0  0.8223288058717289  0.17101222281676626  0.007585875095770986  1.0000
  H   H20       1.0  0.17767119398006598  0.8289877769740194  0.9924141250167938  1.0000
  H   H21       1.0  0.13592777681172263  0.33483819257597264  0.05616690136736376  1.0000
  H   H22       1.0  0.8640722230968149  0.6651618080309549  0.9438330987453702  1.0000
  H   H23       1.0  0.06020832936643993  0.2402917637105487  0.9668056646706891  1.0000
  H   H24       1.0  0.939791670485355  0.759708236080237  0.03319433544187561  1.0000
  H   H25       1.0  0.05597706788481675  0.38325707125823283  0.9533105773509332  1.0000
  H   H26       1.0  0.9440229319669782  0.6167429285325529  0.04668942276163169  1.0000
  H   H27       1.0  0.8611559772213304  0.7997372801742824  0.23275088326291749  1.0000
  H   H28       1.0  0.1388440226872072  0.2002627204326453  0.7672491168498164  1.0000
  H   H29       1.0  0.08271626813600073  0.7004269607164907  0.3201126013248673  1.0000
  H   H30       1.0  0.9172837317157941  0.2995730390742949  0.6798873987876975  1.0000
  H   H31       1.0  0.38514167803340377  0.7418774744176724  0.31608704480346317  1.0000
  H   H32       1.0  0.614858321818391  0.2581225253731133  0.6839129553091017  1.0000
  H   H33       1.0  0.9208119128260597  0.05968926088139181  0.15952607390076173  1.0000
  H   H34       1.0  0.07918808831846938  0.9403107397244067  0.8404739262145413  1.0000
  H   H35       1.0  0.7787224563328475  0.9419296648479658  0.13483698285975226  1.0000
  H   H36       1.0  0.22127754475493883  0.05807033494169085  0.8651630172553817  1.0000
  H   H37       1.0  0.9200947641678557  0.9745029969921817  0.06570769141655403  1.0000
  H   H38       1.0  0.07990523574068176  0.02549700361474595  0.93429230869618  1.0000
  H   H39       1.0  0.5692040409933224  0.9708982086335989  0.2747003596882801  1.0000
  H   H40       1.0  0.4307959586192613  0.02910179110008404  0.7252996397786562  1.0000
  H   H41       1.0  0.5296434278195916  0.922979348417667  0.16461317322294752  1.0000
  H   H42       1.0  0.4703565720322031  0.07702065137311839  0.8353868268896172  1.0000
  H   H43       1.0  0.5929676175334655  0.8306039637352374  0.24572421708630054  1.0000
  H   H44       1.0  0.4070323823183293  0.16939603605554807  0.7542757830262642  1.0000
  H   H45       1.0  0.011703598487975624  0.006585466451408344  0.6589279958271588  1.0000
  H   H46       1.0  0.9882964013638194  0.9934145333393773  0.34107200428540607  1.0000
  H   H47       1.0  0.002648681779120516  0.8022656648760401  0.6350440008563657  1.0000
  H   H48       1.0  0.9973513181294169  0.1977343357308875  0.3649559992563683  1.0000
  H   H49       1.0  0.18068635767603916  0.7185547865354855  0.5371766040068005  1.0000
  H   H50       1.0  0.8193136419932874  0.28144521401433953  0.46282339546030515  1.0000
  H   H51       1.0  0.353730780566446  0.8449568651780125  0.463649760075095  1.0000
  H   H52       1.0  0.6462692191028805  0.15504313537181258  0.5363502393920105  1.0000
  H   H53       1.0  0.34179503018006707  0.047594642737694544  0.49274640734061115  1.0000
  H   H54       1.0  0.6582049696717278  0.9524053570530912  0.5072535927719537  1.0000
  H   H55       1.0  0.8757552869282289  0.5131699448281316  0.252224840506028  1.0000
  H   H56       1.0  0.12424471274109745  0.48683005572169347  0.7477751589610776  1.0000
  C   C1        1.0  0.5256230254023871  0.40761569082262844  0.3200575785489793  1.0000
  C   C2        1.0  0.47437697444940763  0.5923843089681572  0.6799424215635855  1.0000
  C   C3        1.0  0.4631471758490023  0.31094903773044236  0.2618848913992522  1.0000
  C   C4        1.0  0.5368528240027926  0.6890509620603433  0.7381151087133125  1.0000
  C   C5        1.0  0.4585159303222187  0.29050139348183684  0.17396259165700184  1.0000
  C   C6        1.0  0.5414840695295761  0.7094986063089488  0.8260374084555628  1.0000
  C   C7        1.0  0.3810021239920516  0.19175634623631738  0.13419497596902538  1.0000
  C   C8        1.0  0.6189978758597432  0.8082436535544681  0.8658050241435394  1.0000
  C   C9        1.0  0.3144187491141558  0.1128237073616455  0.18292795945023071  1.0000
  C   C10       1.0  0.6855812507376391  0.8871762924291401  0.8170720406623341  1.0000
  C   C11       1.0  0.3149613065032357  0.1357394168588112  0.27034934973180585  1.0000
  C   C12       1.0  0.685038693348559  0.8642605829319744  0.7296506503807589  1.0000
  C   C13       1.0  0.3884034932289643  0.23577479251731004  0.3088239576341042  1.0000
  C   C14       1.0  0.6115965066228306  0.7642252072734754  0.6911760424784605  1.0000
  C   C15       1.0  0.3964405035080404  0.2858590676956733  0.39576648519062096  1.0000
  C   C16       1.0  0.6035594964004971  0.7141409329112544  0.604233514922113  1.0000
  C   C17       1.0  0.3302646222466724  0.3009421761001161  0.5320944163073251  1.0000
  C   C18       1.0  0.6697353776051225  0.6990578236906696  0.46790558380523967  1.0000
  C   C19       1.0  0.3551899059491094  0.4158506362023056  0.6417775159422867  1.0000
  C   C20       1.0  0.6448100939594281  0.5841493644046221  0.3582224841704473  1.0000
  C   C21       1.0  0.4163556962980026  0.2434583296224782  0.997052245392707  1.0000
  C   C22       1.0  0.5836443035537923  0.7565416701683076  0.0029477547198578434  1.0000
  C   C23       1.0  0.580142052797412  0.2404547588810498  0.9810973384260374  1.0000
  C   C24       1.0  0.41985794705438284  0.7595452409097359  0.0189026616865273  1.0000
  C   C25       1.0  0.6292576237352259  0.31782984287233584  0.9277615619755011  1.0000
  C   C26       1.0  0.370742375877358  0.6821701568613473  0.07223843749143544  1.0000
  C   C27       1.0  0.5175844086403418  0.3937769711111544  0.8924141621319771  1.0000
  C   C28       1.0  0.4824155909722421  0.6062230286225287  0.10758583733495934  1.0000
  C   C29       1.0  0.3560598049456443  0.39496021753755756  0.9109361470204246  1.0000
  C   C30       1.0  0.6439401949061505  0.6050397822532281  0.08906385309214027  1.0000
  C   C31       1.0  0.30154907573784123  0.31963056448303084  0.9642420057337148  1.0000
  C   C32       1.0  0.6984509238747426  0.6803694352506522  0.03575799373322166  1.0000
  C   C33       1.0  0.6952912724644592  0.157161737593729  0.020707133927729316  1.0000
  C   C34       1.0  0.3047087273873357  0.8428382621970566  0.9792928661848355  1.0000
  C   C35       1.0  0.12929630250183735  0.3197864558497307  0.9862645701600001  1.0000
  C   C36       1.0  0.8707036971107465  0.6802135438839523  0.013735429306936294  1.0000
  C   C37       1.0  0.20686642244073838  0.9314880284850274  0.1868055415545147  1.0000
  C   C38       1.0  0.7931335774110564  0.06851197130575816  0.81319445855805  1.0000
  C   C39       1.0  0.035580274655475086  0.9072714620080625  0.18438226702817717  1.0000
  C   C40       1.0  0.9644197251963198  0.09272853778272314  0.8156177330843877  1.0000
  C   C41       1.0  0.9929995580700137  0.8219995860393207  0.23279998402404636  1.0000
  C   C42       1.0  0.007000441781781072  0.17800041375146497  0.7672000160885185  1.0000
  C   C43       1.0  0.11843394410290188  0.7651065843234862  0.2816559527696031  1.0000
  C   C44       1.0  0.8815660557488929  0.2348934154672994  0.7183440473429616  1.0000
  C   C45       1.0  0.28791508027242885  0.7895381799106385  0.2805373561389479  1.0000
  C   C46       1.0  0.7120849195793661  0.2104618198801472  0.7194626439736169  1.0000
  C   C47       1.0  0.3360024867997443  0.8734446603378488  0.23239565631233447  1.0000
  C   C48       1.0  0.6639975130520506  0.1265553394529368  0.7676043438002305  1.0000
  C   C49       1.0  0.9064272692201073  0.9738273107689589  0.13343261721830674  1.0000
  C   C50       1.0  0.09357273063168754  0.02617268902182685  0.866567382894258  1.0000
  C   C51       1.0  0.5169158521776066  0.9007946976946521  0.22933349137235917  1.0000
  C   C52       1.0  0.4830841476741882  0.09920530209613353  0.7706665087402057  1.0000
  C   C53       1.0  0.08551078971216074  0.9668381800983791  0.6161779360756554  1.0000
  C   C54       1.0  0.9144892101396341  0.033161819692406405  0.3838220640369094  1.0000
  C   C55       1.0  0.0821746640549866  0.8532285148716907  0.6033193571439509  1.0000
  C   C56       1.0  0.9178253357968083  0.14677148491909503  0.3966806429686139  1.0000
  C   C57       1.0  0.1800949121003728  0.8072457165732191  0.5483625862272148  1.0000
  C   C58       1.0  0.819905087751422  0.19275428321756655  0.45163741388535006  1.0000
  C   C59       1.0  0.27656963593896783  0.8768646317668632  0.5078093320549223  1.0000
  C   C60       1.0  0.723430363912827  0.12313536802392241  0.4921906680576425  1.0000
  C   C61       1.0  0.2713429241495969  0.9894747724800953  0.5240732010865842  1.0000
  C   C62       1.0  0.7286570757021981  0.010525227310690492  0.4759267990259808  1.0000
  C   C63       1.0  0.9780470889570375  0.4569160294635693  0.2624730397827156  1.0000
  C   C64       1.0  0.021952912130748875  0.5430839703260872  0.7375269603324184  1.0000
  N   N1        1.0  0.4817304597381874  0.38672494576745775  0.39881861210632824  1.0000
  N   N2        1.0  0.5182695413495989  0.6132750540221988  0.6011813880088056  1.0000
  N   N3        1.0  0.32956473790566154  0.2428694641582833  0.45564665040731855  1.0000
  N   N4        1.0  0.6704352631821248  0.7571305356313733  0.5443533497078153  1.0000
  N   N5        1.0  0.39361363440345615  0.40296477409838555  0.5607801541362367  1.0000
  N   N6        1.0  0.6063863654483387  0.5970352256924001  0.43921984597632807  1.0000
  N   N7        1.0  0.27130155632674746  0.3275472859348639  0.6637990424498339  1.0000
  N   N8        1.0  0.728698444761039  0.6724527138547927  0.33620095766530006  1.0000
  N   N9        1.0  0.2562238454990258  0.2567771270127309  0.5935042585279617  1.0000
  N   N10       1.0  0.7437761544095117  0.7432228735941968  0.4064957415847722  1.0000
  N   N11       1.0  0.3966356556659739  0.5054499619062445  0.6996749538073158  1.0000
  N   N12       1.0  0.6033643439466099  0.4945500378274386  0.30032504565962054  1.0000
  N   N13       1.0  0.17824151241935057  0.03418476861005725  0.5775453029857806  1.0000
  N   N14       1.0  0.8217584874324443  0.9658152311807283  0.42245469712678424  1.0000
  O   O1        1.0  0.363383575667144  0.16347188931073095  0.047868877573544355  1.0000
  O   O2        1.0  0.6366164241846507  0.8365281104800547  0.9521311225390203  1.0000
  O   O3        1.0  0.24900127980729048  0.016796063910287113  0.13795962576453966  1.0000
  O   O4        1.0  0.7509987212804958  0.9832039358793695  0.8620403743505943  1.0000
  Cl  Cl1       1.0  0.14151156519071292  0.502609515059671  0.21105351159924587  1.0000
  Cl  Cl2       1.0  0.8584884346610819  0.49739048473111463  0.7889464885133189  1.0000
  Cl  Cl3       1.0  0.050210281458576984  0.4567750101492219  0.3760958603704374  1.0000
  Cl  Cl4       1.0  0.9497897181540068  0.5432249895844612  0.623904139096499  1.0000
  Cl  Cl5       1.0  0.895347613823847  0.3256506718433966  0.21718544256657385  1.0000
  Cl  Cl6       1.0  0.10465238602794778  0.674349327947389  0.7828145575459909  1.0000
