data_image0
_chemical_formula_structural       H100C100N12O28
_chemical_formula_sum              "H100 C100 N12 O28"
_cell_length_a       7.254573029890257
_cell_length_b       36.83278362686293
_cell_length_c       8.528384117080575
_cell_angle_alpha    90.0
_cell_angle_beta     107.65237635067908
_cell_angle_gamma    90.0

_space_group_name_H-M_alt    "P 1"
_space_group_IT_number       1

loop_
  _space_group_symop_operation_xyz
  'x, y, z'

loop_
  _atom_site_type_symbol
  _atom_site_label
  _atom_site_symmetry_multiplicity
  _atom_site_fract_x
  _atom_site_fract_y
  _atom_site_fract_z
  _atom_site_occupancy
  H   H1        1.0  0.48335204340975124  0.24811593450501196  0.0010898621868778398  1.0000
  H   H2        1.0  0.5166479568162176  0.7481159344118488  0.4989101383476888  1.0000
  H   H3        1.0  0.516647957294336  0.7518840655801586  0.9989101377835801  1.0000
  H   H4        1.0  0.4833520424259145  0.2518840654018247  0.501089862405596  1.0000
  H   H5        1.0  0.31644647381050317  0.24307661079056353  0.6999546811670048  1.0000
  H   H6        1.0  0.683553527356218  0.7430766106974002  0.800045319407838  1.0000
  H   H7        1.0  0.6835535268780994  0.7569233892946071  0.30004531997194683  1.0000
  H   H8        1.0  0.3164464733478693  0.25692338911627316  0.1999546805626199  1.0000
  H   H9        1.0  0.15112808156636373  0.18655065958655112  0.5860005204802492  1.0000
  H   H10       1.0  0.8488719181538867  0.686550659764885  0.9139994797089268  1.0000
  H   H11       1.0  0.8488719191377234  0.8134493402271222  0.4139994794902086  1.0000
  H   H12       1.0  0.15112808110372977  0.31344934032028554  0.08600051987586446  1.0000
  H   H13       1.0  0.3118777615676909  0.14499475885675434  0.0867409272787404  1.0000
  H   H14       1.0  0.6881222372118072  0.6449947590350883  0.4132590728701597  1.0000
  H   H15       1.0  0.6881222376899256  0.855005240956919  0.9132590723060509  1.0000
  H   H16       1.0  0.31187776203032486  0.35500524105008235  0.5867409278831253  1.0000
  H   H17       1.0  0.14017288958825777  0.10619265135169839  0.887237269218891  1.0000
  H   H18       1.0  0.8598271101319926  0.606192651258535  0.612762730970285  1.0000
  H   H19       1.0  0.8598271096693589  0.8938073487334723  0.11276273036590022  1.0000
  H   H20       1.0  0.14017288911013934  0.39380734882663554  0.38723726978299994  1.0000
  H   H21       1.0  0.7096790156143976  0.07304174203216846  0.21291535755822552  1.0000
  H   H22       1.0  0.29032098461157113  0.5730417422105024  0.28708464297634123  1.0000
  H   H23       1.0  0.29032098508968956  0.9269582577815049  0.7870846424122323  1.0000
  H   H24       1.0  0.709679016092516  0.42695825787466823  0.7129153569941167  1.0000
  H   H25       1.0  0.6603329887974765  0.10685094289560214  0.34041649942714547  1.0000
  H   H26       1.0  0.3396670114284921  0.606850943073936  0.15958350110742126  1.0000
  H   H27       1.0  0.339667011891126  0.8931490569180713  0.659583501711806  1.0000
  H   H28       1.0  0.660332989275595  0.39314905701123454  0.8404164988630365  1.0000
  H   H29       1.0  0.9220684165259675  0.1517073430183185  0.46565100153607525  1.0000
  H   H30       1.0  0.07793158370000126  0.6517073431966525  0.03434899899849156  1.0000
  H   H31       1.0  0.07793158273164909  0.8482926567953548  0.534348998048716  1.0000
  H   H32       1.0  0.9220684170040859  0.3482926568885182  0.9656510009719663  1.0000
  H   H33       1.0  0.15961773123223627  0.13980536177136552  0.4663689009605309  1.0000
  H   H34       1.0  0.8403822689937325  0.6398053619496995  0.03363109957403581  1.0000
  H   H35       1.0  0.8403822680253804  0.8601946380423078  0.5336310986242603  1.0000
  H   H36       1.0  0.15961773169487017  0.36019463813547115  0.9663689015649156  1.0000
  H   H37       1.0  0.2108385884868216  0.10028103163254155  0.2868469059754262  1.0000
  H   H38       1.0  0.7891614117546317  0.6002810315393783  0.2131530933906469  1.0000
  H   H39       1.0  0.7891614122172655  0.899718968452629  0.7131530939950317  1.0000
  H   H40       1.0  0.2108385875029849  0.39971896854579236  0.7868469061941443  1.0000
  H   H41       1.0  0.020876620534055805  0.07280916308601049  0.15824947785709587  1.0000
  H   H42       1.0  0.9791233796919129  0.5728091629928471  0.3417505226774709  1.0000
  H   H43       1.0  0.9791233787080763  0.9271908369991602  0.841750522896189  1.0000
  H   H44       1.0  0.02087662101217426  0.42719083709232347  0.6582494772929869  1.0000
  H   H45       1.0  0.1312171232176298  0.06045734019342319  0.367752938975806  1.0000
  H   H46       1.0  0.8687828770238235  0.5604573403717572  0.13224706039026699  1.0000
  H   H47       1.0  0.8687828774864575  0.9395426596202502  0.6322470609946518  1.0000
  H   H48       1.0  0.1312171236802637  0.43954265971341355  0.8677529395801907  1.0000
  H   H49       1.0  0.790886587152765  0.009594111147827397  0.572706247483094  1.0000
  H   H50       1.0  0.2091134125674855  0.5095941113261614  0.9272937527060822  1.0000
  H   H51       1.0  0.20911341210485157  0.990405888665846  0.4272937521016973  1.0000
  H   H52       1.0  0.7908865881366017  0.49040588875900937  0.07270624726437577  1.0000
  H   H53       1.0  0.665311686229061  0.9563155439685683  0.3829316633215913  1.0000
  H   H54       1.0  0.3346883125504371  0.4563155437902344  0.11706833682730881  1.0000
  H   H55       1.0  0.3346883130285555  0.043684456116602266  0.6170683362631999  1.0000
  H   H56       1.0  0.6653116866916949  0.543684456023439  0.882931663925976  1.0000
  H   H57       1.0  0.4365408917664176  0.06366387927003708  0.23791292460600727  1.0000
  H   H58       1.0  0.5634591084595512  0.5636638791768738  0.26208707592855945  1.0000
  H   H59       1.0  0.5634591089376696  0.9363361208151335  0.7620870753644505  1.0000
  H   H60       1.0  0.4365408922290515  0.4363361209082969  0.7379129252103921  1.0000
  H   H61       1.0  0.19120988053289917  0.035144822696916864  0.9974409943522371  1.0000
  H   H62       1.0  0.8087901206493064  0.5351448226037535  0.502559005054112  1.0000
  H   H63       1.0  0.8087901201711881  0.9648551773882538  0.0025590056182208725  1.0000
  H   H64       1.0  0.19120988005478065  0.4648551774814171  0.49744099491634586  1.0000
  H   H65       1.0  0.18999472507948376  0.9677160923021932  0.9705876903930202  1.0000
  H   H66       1.0  0.8100052746562513  0.46771609239535666  0.5294123086276621  1.0000
  H   H67       1.0  0.8100052756246034  0.03228390778297733  0.02941230957743762  1.0000
  H   H68       1.0  0.1899947246013653  0.532283907689814  0.47058769095712916  1.0000
  H   H69       1.0  0.5234986813721195  0.11368761841138766  0.6310766608815238  1.0000
  H   H70       1.0  0.4765013183481309  0.6136876185897217  0.8689233393076522  1.0000
  H   H71       1.0  0.47650131933196765  0.8863123814022857  0.368923339088934  1.0000
  H   H72       1.0  0.5234986809094856  0.38631238149544905  0.13107666027713905  1.0000
  H   H73       1.0  0.7630421225534849  0.22118026436803032  0.6424092895335844  1.0000
  H   H74       1.0  0.23695787716676545  0.721180264274867  0.8575907106555914  1.0000
  H   H75       1.0  0.23695787813511762  0.7788197357171404  0.3575907116053671  1.0000
  H   H76       1.0  0.7630421220908511  0.27881973581030367  0.14240928892919968  1.0000
  H   H77       1.0  0.9403235899259926  0.2433520534533494  0.8992716076079608  1.0000
  H   H78       1.0  0.05967640980974233  0.7433520533601861  0.6007283914127217  1.0000
  H   H79       1.0  0.0596764107780945  0.7566479466318213  0.10072839236249714  1.0000
  H   H80       1.0  0.9403235894478743  0.25664794672498453  0.3992716081720696  1.0000
  H   H81       1.0  0.8730995739488895  0.13700278238866812  0.18239313638132387  1.0000
  H   H82       1.0  0.12690042627707923  0.6370027822955049  0.31760686415324285  1.0000
  H   H83       1.0  0.12690042530872708  0.8629972176965025  0.8176068632034674  1.0000
  H   H84       1.0  0.8730995744115234  0.3629972177896658  0.6823931369857087  1.0000
  H   H85       1.0  0.6107813579615571  0.08245187984611353  0.8877480038519715  1.0000
  H   H86       1.0  0.389218643205164  0.5824518797529502  0.6122519967228712  1.0000
  H   H87       1.0  0.38921864272704554  0.9175481202390572  0.11225199728698007  1.0000
  H   H88       1.0  0.6107813574989231  0.41754812006072317  0.3877480032475866  1.0000
  H   H89       1.0  0.509101346432912  0.1969409416210832  0.2349423880381024  1.0000
  H   H90       1.0  0.49089865379305664  0.6969409415279199  0.2650576124964643  1.0000
  H   H91       1.0  0.49089865282470446  0.8030590584640874  0.7650576115466888  1.0000
  H   H92       1.0  0.5091013469110305  0.3030590585572508  0.7349423874739935  1.0000
  H   H93       1.0  0.005882745085414526  0.27442149098468455  0.7020545674025566  1.0000
  H   H94       1.0  0.9941172560813066  0.7744214908915211  0.7979454331722863  1.0000
  H   H95       1.0  0.9941172556031882  0.7255785091004862  0.29794543373639504  1.0000
  H   H96       1.0  0.005882744622780603  0.22557850892215217  0.20205456679817166  1.0000
  H   H97       1.0  0.9011838306551193  0.2969192128075783  0.7956705981247769  1.0000
  H   H98       1.0  0.09881616906513123  0.7969192129859123  0.7043294020643991  1.0000
  H   H99       1.0  0.09881617004896792  0.7030807870060951  0.2043294018456809  1.0000
  H   H100      1.0  0.9011838301924854  0.2030807870992584  0.29567059752039215  1.0000
  C   C1        1.0  0.4055194892970898  0.2234698933804434  0.9491453259780906  1.0000
  C   C2        1.0  0.5944805118696312  0.7234698932872801  0.550854674596752  1.0000
  C   C3        1.0  0.5944805114069973  0.7765301067047273  0.05085467399236719  1.0000
  C   C4        1.0  0.4055194888344559  0.27653010679789053  0.4491453253737059  1.0000
  C   C5        1.0  0.3141560353334059  0.22037434591503696  0.7808647646936874  1.0000
  C   C6        1.0  0.6858439643868446  0.7203743460933708  0.7191352354954887  1.0000
  C   C7        1.0  0.6858439639242108  0.7796256538986365  0.2191352348911039  1.0000
  C   C8        1.0  0.31415603631724254  0.2796256539917997  0.28086476447496916  1.0000
  C   C9        1.0  0.22109792139161832  0.18822712858833912  0.7177160385385544  1.0000
  C   C10       1.0  0.7789020797751028  0.6882271284951758  0.7822839620362884  1.0000
  C   C11       1.0  0.7789020793124688  0.8117728714968315  0.28228396143190354  1.0000
  C   C12       1.0  0.2210979209289844  0.31177287158999484  0.21771603793416955  1.0000
  C   C13       1.0  0.21914003743745442  0.15922798258784518  0.8256345544295455  1.0000
  C   C14       1.0  0.7808599637292668  0.6592279824946818  0.6743654461452971  1.0000
  C   C15       1.0  0.7808599632666328  0.8407720174973254  0.17436544554091235  1.0000
  C   C16       1.0  0.2191400369748205  0.3407720173189915  0.3256345538251607  1.0000
  C   C17       1.0  0.30991016326165544  0.16559736054137297  0.994326112217541  1.0000
  C   C18       1.0  0.6900898379205502  0.6655973607197069  0.5056738871888079  1.0000
  C   C19       1.0  0.6900898374424318  0.8344026392723004  0.005673887752916877  1.0000
  C   C20       1.0  0.3099101627835369  0.3344026393654637  0.4943261127816499  1.0000
  C   C21       1.0  0.13436152586700387  0.12361463950499112  0.7819906058137814  1.0000
  C   C22       1.0  0.8656384738532467  0.6236146394118278  0.7180093943753946  1.0000
  C   C23       1.0  0.8656384748370832  0.8763853605801795  0.21800939415667633  1.0000
  C   C24       1.0  0.13436152540436996  0.37638536040184556  0.2819906052093967  1.0000
  C   C25       1.0  0.04784744431218061  0.10863598338198147  0.6316737872622196  1.0000
  C   C26       1.0  0.9521525554235545  0.6086359835603155  0.8683262117584629  1.0000
  C   C27       1.0  0.9521525549454359  0.8913640164316919  0.36832621232257173  1.0000
  C   C28       1.0  0.04784744528053277  0.39136401652485525  0.13167378821199502  1.0000
  C   C29       1.0  0.9626202910822202  0.0718221945101821  0.6289460245437117  1.0000
  C   C30       1.0  0.037379710084500826  0.5718221944170188  0.8710539760311309  1.0000
  C   C31       1.0  0.037379709621866895  0.9281778055749885  0.3710539754267461  1.0000
  C   C32       1.0  0.9626202906195863  0.42817780566815183  0.12894602393932694  1.0000
  C   C33       1.0  0.8157894622284936  0.06048547844141715  0.47242075706814135  1.0000
  C   C34       1.0  0.18421053801295967  0.5604854783482538  0.027579242297931735  1.0000
  C   C35       1.0  0.18421053847559357  0.9395145216437535  0.5275792429023165  1.0000
  C   C36       1.0  0.8157894612446569  0.43951452173691685  0.9724207572868595  1.0000
  C   C37       1.0  0.7696285776153813  0.08687712588918275  0.331060831309398  1.0000
  C   C38       1.0  0.2303714211641168  0.5868771257960195  0.16893916883950214  1.0000
  C   C39       1.0  0.23037142164223526  0.9131228741959879  0.6689391682753932  1.0000
  C   C40       1.0  0.7696285780934998  0.41312287428915123  0.8310608307452891  1.0000
  C   C41       1.0  0.021125208398679464  0.12866292127168302  0.47176522875808874  1.0000
  C   C42       1.0  0.9788747918272893  0.6286629211785196  0.028234771776478033  1.0000
  C   C43       1.0  0.9788747908589372  0.8713370788134877  0.5282347708267027  1.0000
  C   C44       1.0  0.021125208876797915  0.3713370786351537  0.9717652281939798  1.0000
  C   C45       1.0  0.08422121173816122  0.0836700652663237  0.28286393282577027  1.0000
  C   C46       1.0  0.9157787884878076  0.5836700654446576  0.21713606770879645  1.0000
  C   C47       1.0  0.9157787889659259  0.9163299345473496  0.7171360671446875  1.0000
  C   C48       1.0  0.08422121075432452  0.416329934640513  0.7828639330444884  1.0000
  C   C49       1.0  0.7336976814868437  0.02715576862538612  0.46537385478909904  1.0000
  C   C50       1.0  0.26630231875460975  0.5271557688037201  0.03462614457697407  1.0000
  C   C51       1.0  0.2663023192172436  0.9728442311882872  0.5346261451813589  1.0000
  C   C52       1.0  0.7336976819494774  0.4728442312814506  0.9653738553934837  1.0000
  C   C53       1.0  0.5791041866751975  0.012649631500025805  0.3281523175435868  1.0000
  C   C54       1.0  0.4208958135507713  0.5126496314068625  0.17184768299097994  1.0000
  C   C55       1.0  0.42089581401340526  0.9873503685851449  0.6718476835953646  1.0000
  C   C56       1.0  0.5791041857068453  0.4873503686783081  0.8281523165938113  1.0000
  C   C57       1.0  0.5629185322561955  0.9748794946850523  0.30103114140182813  1.0000
  C   C58       1.0  0.4370814679852578  0.47487949477821567  0.19896885796424493  1.0000
  C   C59       1.0  0.43708146700142114  0.02512050540011832  0.6989688581829631  1.0000
  C   C60       1.0  0.5629185327188294  0.5251205053069551  0.8010311420062131  1.0000
  C   C61       1.0  0.43846366495246236  0.03452156814649897  0.21841253688341286  1.0000
  C   C62       1.0  0.5615363338270357  0.5345215680533356  0.2815874632654873  1.0000
  C   C63       1.0  0.5615363343051542  0.9654784319386718  0.7815874627013784  1.0000
  C   C64       1.0  0.43846366541509635  0.46547843176033776  0.7184125374877978  1.0000
  C   C65       1.0  0.2980275906787051  0.018806225101455805  0.08723595905611248  1.0000
  C   C66       1.0  0.7019724095472637  0.5188062250082924  0.41276404147845425  1.0000
  C   C67       1.0  0.7019724100098975  0.981193774983715  0.912764042082839  1.0000
  C   C68       1.0  0.29802759115682353  0.4811937750768781  0.5872359584920036  1.0000
  C   C69       1.0  0.29819437469925136  0.9812583913326748  0.07066746878928691  1.0000
  C   C70       1.0  0.7018056240957314  0.48125839142583815  0.4293325301911196  1.0000
  C   C71       1.0  0.7018056245583653  0.018741608752495847  0.9293325307955045  1.0000
  C   C72       1.0  0.2981943751618853  0.5187416086593325  0.5706674693936717  1.0000
  C   C73       1.0  0.8158915763825328  0.19501170785151883  0.8778312333373928  1.0000
  C   C74       1.0  0.1841084233377177  0.6950117080298528  0.6221687668517834  1.0000
  C   C75       1.0  0.1841084243215544  0.8049882922336519  0.12216876663306513  1.0000
  C   C76       1.0  0.8158915759044144  0.30498829205531786  0.3778312339015016  1.0000
  C   C77       1.0  0.7880476796503679  0.16338824214227768  0.9618837888534603  1.0000
  C   C78       1.0  0.21195232006988252  0.6633882423206116  0.5381162113357156  1.0000
  C   C79       1.0  0.21195231959176405  0.8366117576713957  0.03811621189982457  1.0000
  C   C80       1.0  0.7880476791877342  0.33661175776455904  0.46188378824907556  1.0000
  C   C81       1.0  0.6838787999286707  0.1338243476228901  0.8716172402635824  1.0000
  C   C82       1.0  0.31612119979157977  0.6338243478012241  0.6283827599255937  1.0000
  C   C83       1.0  0.31612119932894583  0.8661756521907833  0.12838275932120885  1.0000
  C   C84       1.0  0.6838787994505523  0.36617565228394655  0.37161724082769126  1.0000
  C   C85       1.0  0.6073485855700557  0.13605143045298537  0.7012673667266336  1.0000
  C   C86       1.0  0.39265141415019483  0.636051430359822  0.7987326334625424  1.0000
  C   C87       1.0  0.3926514136875609  0.8639485696321852  0.29873263285815765  1.0000
  C   C88       1.0  0.6073485865538925  0.3639485694538513  0.20126736650791544  1.0000
  C   C89       1.0  0.6347738204259318  0.1675318868786122  0.618669030965513  1.0000
  C   C90       1.0  0.3652261792943187  0.6675318870569462  0.881330969223663  1.0000
  C   C91       1.0  0.3652261802781554  0.8324681129350612  0.38133096900494495  1.0000
  C   C92       1.0  0.634773819963298  0.3324681130282245  0.11866903036112818  1.0000
  C   C93       1.0  0.7403090246618913  0.19689210523613265  0.7067789445051255  1.0000
  C   C94       1.0  0.2596909750583593  0.6968921054144666  0.7932210556840507  1.0000
  C   C95       1.0  0.259690976042196  0.8031078945775407  0.2932210554653325  1.0000
  C   C96       1.0  0.7403090241992571  0.30310789467070404  0.20677894390074056  1.0000
  C   C97       1.0  0.5440190533317367  0.1688128451813561  0.43887548229927975  1.0000
  C   C98       1.0  0.4559809468942321  0.6688128450881928  0.061124518235287084  1.0000
  C   C99       1.0  0.45598094737235056  0.8311871549038145  0.5611245176711782  1.0000
  C   C100      1.0  0.5440190523479  0.33118715472548055  0.9388754825179979  1.0000
  N   N1        1.0  0.40135771342247173  0.1964490336462869  0.05385237009002392  1.0000
  N   N2        1.0  0.5986422868189816  0.6964490338246208  0.4461476292760491  1.0000
  N   N3        1.0  0.5986422858351448  0.8035509661673865  0.9461476294947674  1.0000
  N   N4        1.0  0.40135771388510566  0.30355096626054984  0.5538523706944087  1.0000
  N   N5        1.0  0.9408115670435699  0.10687146265885589  0.32278661166514994  1.0000
  N   N6        1.0  0.05918843318239891  0.6068714628371898  0.17721338886941684  1.0000
  N   N7        1.0  0.05918843366051736  0.8931285371548175  0.677213388305308  1.0000
  N   N8        1.0  0.9408115675216883  0.3931285372479808  0.8227866111010411  1.0000
  N   N9        1.0  0.42729432461333244  0.9596641328574639  0.1760445727795845  1.0000
  N   N10       1.0  0.5727056756281208  0.459664132950627  0.32395542658648857  1.0000
  N   N11       1.0  0.5727056760907546  0.040335866956209644  0.8239554271908734  1.0000
  N   N12       1.0  0.42729432362949576  0.5403358671345435  0.6760445729983027  1.0000
  O   O1        1.0  0.006091215787437844  0.051657338182073555  0.7519251424341116  1.0000
  O   O2        1.0  0.9939087839328127  0.5516573380889103  0.7480748577550645  1.0000
  O   O3        1.0  0.9939087849166492  0.9483426619030971  0.2480748575363464  1.0000
  O   O4        1.0  0.006091215324803918  0.44834266172476317  0.25192514182972664  1.0000
  O   O5        1.0  0.9199202813571036  0.22243061488366203  0.9709656215404098  1.0000
  O   O6        1.0  0.08007971837863147  0.722430615061996  0.5290343774802725  1.0000
  O   O7        1.0  0.080079717900513  0.7775693852015086  0.0290343780443814  1.0000
  O   O8        1.0  0.9199202823254558  0.2775693850231747  0.47096562249018525  1.0000
  O   O9        1.0  0.8611838937171536  0.16255465567455255  0.12688872183456482  1.0000
  O   O10       1.0  0.13881610650881518  0.6625546558528865  0.37311127870000194  1.0000
  O   O11       1.0  0.1388161069869336  0.8374453441391208  0.8731112781358931  1.0000
  O   O12       1.0  0.8611838927488014  0.3374453442322841  0.6268887208847893  1.0000
  O   O13       1.0  0.6616429724746965  0.10455929204306001  0.9608705471254477  1.0000
  O   O14       1.0  0.33835702724555394  0.6045592922213939  0.5391294530637283  1.0000
  O   O15       1.0  0.33835702678292  0.8954407077706135  0.03912945245934348  1.0000
  O   O16       1.0  0.6616429720120626  0.3954407078637767  0.4608705465210629  1.0000
  O   O17       1.0  0.5890367064307857  0.1976986155531627  0.3638639605073118  1.0000
  O   O18       1.0  0.4109632923487125  0.6976986154599994  0.13613603964158838  1.0000
  O   O19       1.0  0.4109632928268309  0.8023013845320079  0.6361360390774795  1.0000
  O   O20       1.0  0.589036706908904  0.302301384353674  0.8638639599432029  1.0000
  O   O21       1.0  0.434466668964773  0.14427364854727914  0.36272100413210995  1.0000
  O   O22       1.0  0.5655333312766803  0.6442736484541158  0.1372789952339631  1.0000
  O   O23       1.0  0.5655333302928436  0.8557263515378914  0.6372789954526812  1.0000
  O   O24       1.0  0.43446666942740697  0.3557263516310548  0.8627210047364948  1.0000
  O   O25       1.0  0.9957426598374679  0.2771551765790191  0.8143455526839964  1.0000
  O   O26       1.0  0.004257341329253182  0.7771551764858559  0.6856544478908463  1.0000
  O   O27       1.0  0.004257340866619256  0.7228448235061515  0.18565444728646147  1.0000
  O   O28       1.0  0.995742659374834  0.22284482359931482  0.3143455520796116  1.0000
