data_image0
_chemical_formula_structural       H108C120N20O16
_chemical_formula_sum              "H108 C120 N20 O16"
_cell_length_a       17.430112530088792
_cell_length_b       9.291151260757864
_cell_length_c       16.588667161633275
_cell_angle_alpha    90.0
_cell_angle_beta     111.73567654749799
_cell_angle_gamma    90.0

_space_group_name_H-M_alt    "P 1"
_space_group_IT_number       1

loop_
  _space_group_symop_operation_xyz
  'x, y, z'

loop_
  _atom_site_type_symbol
  _atom_site_label
  _atom_site_symmetry_multiplicity
  _atom_site_fract_x
  _atom_site_fract_y
  _atom_site_fract_z
  _atom_site_occupancy
  H   H1        1.0  0.43258357859977864  0.28224705813110346  0.5283062856535916  1.0000
  H   H2        1.0  0.5674164216958522  0.7822470580903192  0.9716937145709802  1.0000
  H   H3        1.0  0.5674164216898391  0.7177529417873282  0.47169371454559905  1.0000
  H   H4        1.0  0.4325835785937655  0.21775294182811236  0.028306285628210467  1.0000
  H   H5        1.0  0.44694292243723627  0.11164806501227771  0.48970638182858345  1.0000
  H   H6        1.0  0.5530570772287363  0.6116480649714935  0.01029361810485652  1.0000
  H   H7        1.0  0.5530570772347494  0.8883519349061539  0.5102936181302375  1.0000
  H   H8        1.0  0.4469429224432493  0.3883519349469381  0.9897063818539643  1.0000
  H   H9        1.0  0.5434134730363246  0.5743888168671027  0.2769443482651244  1.0000
  H   H10       1.0  0.45658652662964777  0.07438881690788698  0.22305565166831554  1.0000
  H   H11       1.0  0.4565865266356609  0.42561118305132883  0.7230556516936966  1.0000
  H   H12       1.0  0.5434134730423379  0.9256111830105446  0.7769443482905054  1.0000
  H   H13       1.0  0.4478174563690012  0.5935066123926394  0.12105245786067959  1.0000
  H   H14       1.0  0.5521825439146034  0.09350661243342352  0.37894754231313  1.0000
  H   H15       1.0  0.5521825439206164  0.4064933875257923  0.8789475423385109  1.0000
  H   H16       1.0  0.44781745637501436  0.9064933874850081  0.6210524578860607  1.0000
  H   H17       1.0  0.32361469006598886  0.4458379186544549  0.06220617682348465  1.0000
  H   H18       1.0  0.6763853102176157  0.9458379186136705  0.4377938233503249  1.0000
  H   H19       1.0  0.6763853102236288  0.5541620812639768  0.9377938233757059  1.0000
  H   H20       1.0  0.32361469007200194  0.05416208130476099  0.5622061768488656  1.0000
  H   H21       1.0  0.28296014628692123  0.2760217703947716  0.1582639531363073  1.0000
  H   H22       1.0  0.7170398533790512  0.7760217703539875  0.34173604679713254  1.0000
  H   H23       1.0  0.7170398533850644  0.7239782295236601  0.8417360468225136  1.0000
  H   H24       1.0  0.28296014629293437  0.22397822956444421  0.6582639531616884  1.0000
  H   H25       1.0  0.5830026107106117  0.10373873839197191  0.6608356772680878  1.0000
  H   H26       1.0  0.4169973889674312  0.6037387383511877  0.83916432211331  1.0000
  H   H27       1.0  0.4169973889613739  0.8962612626027526  0.3391643226907331  1.0000
  H   H28       1.0  0.5830026107045986  0.3962612615672439  0.16083567724270678  1.0000
  H   H29       1.0  0.5308534996297112  0.26576193204700754  0.6625192499357766  1.0000
  H   H30       1.0  0.4691465000482875  0.7657619320062233  0.8374807500484253  1.0000
  H   H31       1.0  0.46914650004227443  0.7342380678714241  0.33748075002304434  1.0000
  H   H32       1.0  0.530853499623698  0.23423806791220828  0.16251924991039562  1.0000
  H   H33       1.0  0.8365119939197522  0.30165590047356367  0.9400248458522024  1.0000
  H   H34       1.0  0.16348800575824654  0.8016559004327795  0.5599751541319996  1.0000
  H   H35       1.0  0.1634880057522334  0.698344099444868  0.059975154106618606  1.0000
  H   H36       1.0  0.8365119939137391  0.19834409948565213  0.4400248458268213  1.0000
  H   H37       1.0  0.9393300568991262  0.4961993342495587  0.9547691550112226  1.0000
  H   H38       1.0  0.060669942778916686  0.9961993342087745  0.5452308443701753  1.0000
  H   H39       1.0  0.060669942772903586  0.5038006656688729  0.04523084434479431  1.0000
  H   H40       1.0  0.939330056893113  0.0038006657096571273  0.45476915498584153  1.0000
  H   H41       1.0  0.9307551577719478  0.6495574553274169  0.830363465288718  1.0000
  H   H42       1.0  0.06924484252368288  0.14955745536820114  0.6696365349358537  1.0000
  H   H43       1.0  0.06924484251766978  0.3504425445910147  0.16963653491047265  1.0000
  H   H44       1.0  0.9307551577659348  0.8504425445502305  0.330363465263337  1.0000
  H   H45       1.0  0.8173279571307797  0.6191176818200669  0.6860290029233144  1.0000
  H   H46       1.0  0.18267204254721905  0.11911768186085102  0.8139709970608876  1.0000
  H   H47       1.0  0.18267204254120595  0.3808823180983648  0.31397099703550657  1.0000
  H   H48       1.0  0.8173279571247665  0.8808823180575805  0.1860290028979333  1.0000
  H   H49       1.0  0.5561850924258407  0.4241519247076116  0.43612026561710054  1.0000
  H   H50       1.0  0.44381490785776395  0.9241519246668274  0.06387973455670909  1.0000
  H   H51       1.0  0.4438149078637771  0.57584807521082  0.5638797345820901  1.0000
  H   H52       1.0  0.5561850924318537  0.07584807525160424  0.9361202656424815  1.0000
  H   H53       1.0  0.672248569110046  0.4360607223253327  0.6010161022855667  1.0000
  H   H54       1.0  0.32775143118558464  0.9360607222845485  0.8989838979390049  1.0000
  H   H55       1.0  0.3277514311795715  0.5639392775930989  0.398983897913624  1.0000
  H   H56       1.0  0.6722485691040331  0.0639392776338831  0.1010161022601856  1.0000
  H   H57       1.0  0.6894989975527935  0.18308296595972628  0.8154488218525595  1.0000
  H   H58       1.0  0.3105010021252492  0.683082965918942  0.6845511775288384  1.0000
  H   H59       1.0  0.3105010021192361  0.8169170339587054  0.18455117750345743  1.0000
  H   H60       1.0  0.6894989975467806  0.31691703399948956  0.3154488218271785  1.0000
  H   H61       1.0  0.594022155446697  0.1776765433765358  0.5298670843145145  1.0000
  H   H62       1.0  0.4059778442313017  0.6776765433357516  0.9701329156696874  1.0000
  H   H63       1.0  0.40597784422528854  0.8223234565418959  0.4701329156443064  1.0000
  H   H64       1.0  0.5940221554406839  0.32232345658267997  0.029867084289133455  1.0000
  H   H65       1.0  0.12452459867961888  0.019622082870398683  0.22484909848708093  1.0000
  H   H66       1.0  0.8754754016039856  0.5196220828296145  0.2751509016867286  1.0000
  H   H67       1.0  0.8754754016099988  0.9803779170480329  0.7751509017121095  1.0000
  H   H68       1.0  0.12452459868563194  0.48037791708881716  0.7248490985124619  1.0000
  H   H69       1.0  0.9989411768505434  0.8605858483621106  0.17849019701192956  1.0000
  H   H70       1.0  0.0010588234330611804  0.3605858484028948  0.32150980316188005  1.0000
  H   H71       1.0  0.0010588234390742747  0.139414151556321  0.8215098031872611  1.0000
  H   H72       1.0  0.9989411768565566  0.6394141515155368  0.6784901970373106  1.0000
  H   H73       1.0  0.9919345269345868  0.6571799122234877  0.27245015298712544  1.0000
  H   H74       1.0  0.008065472731385774  0.15717991226427186  0.22754984694631453  1.0000
  H   H75       1.0  0.008065472737398868  0.34282008769494393  0.7275498469716954  1.0000
  H   H76       1.0  0.9919345269405998  0.8428200876541597  0.7724501530125065  1.0000
  H   H77       1.0  0.1070649206032767  0.6160074375468891  0.41436146099886845  1.0000
  H   H78       1.0  0.892935079680372  0.1160074375876733  0.08563853857213719  1.0000
  H   H79       1.0  0.8929350796863852  0.38399256237154256  0.5856385385975182  1.0000
  H   H80       1.0  0.1070649206092898  0.8839925623307584  0.9143614610242494  1.0000
  H   H81       1.0  0.23118137418970502  0.777630570983801  0.45933619162854344  1.0000
  H   H82       1.0  0.7688186260938995  0.27763057102458516  0.04066380854526615  1.0000
  H   H83       1.0  0.7688186260999126  0.22236942893463066  0.5406638085706471  1.0000
  H   H84       1.0  0.23118137419571813  0.7223694288938465  0.9593361916539246  1.0000
  H   H85       1.0  0.33205869217628964  0.18336162249295215  0.33527385519879915  1.0000
  H   H86       1.0  0.667941307489683  0.6833616224521679  0.16472614473464078  1.0000
  H   H87       1.0  0.667941307495696  0.8166383774254795  0.6647261447600217  1.0000
  H   H88       1.0  0.3320586921823027  0.31663837746626367  0.8352738552241802  1.0000
  H   H89       1.0  0.25694418702838623  0.2182553198293956  0.9437952574500639  1.0000
  H   H90       1.0  0.7430558132672445  0.7182553197886115  0.5562047427745077  1.0000
  H   H91       1.0  0.7430558132612315  0.781744680089036  0.056204742749126686  1.0000
  H   H92       1.0  0.25694418702237315  0.2817446801298202  0.44379525742468295  1.0000
  H   H93       1.0  0.12326050409389779  0.3493057629690633  0.9042362737659848  1.0000
  H   H94       1.0  0.8767394955841009  0.849305764004572  0.5957637262182172  1.0000
  H   H95       1.0  0.8767394955780877  0.6506942369493683  0.09576372619283616  1.0000
  H   H96       1.0  0.12326050408788469  0.15069423699015252  0.4042362737406038  1.0000
  H   H97       1.0  0.0198071072091528  0.27077249625949923  0.9660799933794065  1.0000
  H   H98       1.0  0.9801928924688459  0.770772496218715  0.5339200066047954  1.0000
  H   H99       1.0  0.9801928924628328  0.7292275036589324  0.03392000657941438  1.0000
  H   H100      1.0  0.019807107203139707  0.22922750369971662  0.4660799933540255  1.0000
  H   H101      1.0  0.053009676567624196  0.07029712052569945  0.07286321306098682  1.0000
  H   H102      1.0  0.9469903237159804  0.5702971204849153  0.4271367871128228  1.0000
  H   H103      1.0  0.9469903237219934  0.9297028793927322  0.9271367871382038  1.0000
  H   H104      1.0  0.053009676573637296  0.42970287943351637  0.5728632130863678  1.0000
  H   H105      1.0  0.188672951229129  0.9453916219294789  0.11540104070693565  1.0000
  H   H106      1.0  0.8113270490544755  0.4453916219702631  0.38459895946687395  1.0000
  H   H107      1.0  0.8113270490604888  0.05460837798895271  0.8845989594922549  1.0000
  H   H108      1.0  0.18867295123514208  0.5546083779481685  0.6154010407323166  1.0000
  C   C1        1.0  0.4700637841819179  0.22363744510069605  0.4980394958178145  1.0000
  C   C2        1.0  0.5299362161016866  0.7236374450599119  0.0019605043559951124  1.0000
  C   C3        1.0  0.5299362161076998  0.7763625548177355  0.5019605043813762  1.0000
  C   C4        1.0  0.47006378418793093  0.27636255485851974  0.9980394958431954  1.0000
  C   C5        1.0  0.4513020042457565  0.2869527074928418  0.4105243651057571  1.0000
  C   C6        1.0  0.548697995420216  0.7869527074520577  0.08947563482768275  1.0000
  C   C7        1.0  0.548697995426229  0.7130472924255898  0.5894756348530636  1.0000
  C   C8        1.0  0.45130200425176964  0.213047292466374  0.9105243651311382  1.0000
  C   C9        1.0  0.4641200357689646  0.41688550119289064  0.30395314840153687  1.0000
  C   C10       1.0  0.5358799638970078  0.9168855011521065  0.19604685153190302  1.0000
  C   C11       1.0  0.535879963903021  0.583114498725541  0.696046851557284  1.0000
  C   C12       1.0  0.46412003577497773  0.08311449876632516  0.8039531484269179  1.0000
  C   C13       1.0  0.48677770261331166  0.5115630578607441  0.2512453388382216  1.0000
  C   C14       1.0  0.5132222976702929  0.011563057901528208  0.248754661335588  1.0000
  C   C15       1.0  0.513222297676306  0.4884369420576876  0.748754661360969  1.0000
  C   C16       1.0  0.4867777026193247  0.9884369420169035  0.7512453388636026  1.0000
  C   C17       1.0  0.4336942710524707  0.5195411832748764  0.1645235090345434  1.0000
  C   C18       1.0  0.5663057292311339  0.019541183315660543  0.3354764911392662  1.0000
  C   C19       1.0  0.566305729237147  0.4804588166435553  0.8354764911646473  1.0000
  C   C20       1.0  0.4336942710584838  0.980458816602771  0.6645235090599244  1.0000
  C   C21       1.0  0.36172441122174404  0.4348994668794581  0.13080472081010058  1.0000
  C   C22       1.0  0.6382755884442285  0.9348994668386739  0.3691952791233393  1.0000
  C   C23       1.0  0.6382755884502416  0.5651005330389735  0.8691952791487203  1.0000
  C   C24       1.0  0.3617244112277571  0.06510053307975772  0.6308047208354816  1.0000
  C   C25       1.0  0.3390432269073995  0.34034426318682764  0.18323211857174454  1.0000
  C   C26       1.0  0.6609567727585729  0.8403442631460435  0.31676788136169537  1.0000
  C   C27       1.0  0.660956772764586  0.6596557378078969  0.8167678813870763  1.0000
  C   C28       1.0  0.33904322691341265  0.15965573677238817  0.6832321185971256  1.0000
  C   C29       1.0  0.39115883919776834  0.3336070593416613  0.2704501594140118  1.0000
  C   C30       1.0  0.6088411604682041  0.8336070593008771  0.22954984051942812  1.0000
  C   C31       1.0  0.6088411604742171  0.6663929405767703  0.7295498405448091  1.0000
  C   C32       1.0  0.3911588392037814  0.16639294061755452  0.7704501594393928  1.0000
  C   C33       1.0  0.5784771988430285  0.21828622019813815  0.6416394548103939  1.0000
  C   C34       1.0  0.4215228008349702  0.7182862201573539  0.858360545173808  1.0000
  C   C35       1.0  0.42152280082895704  0.7817137797202935  0.35836054514842697  1.0000
  C   C36       1.0  0.5784771988370154  0.2817137797610777  0.1416394547850129  1.0000
  C   C37       1.0  0.6581921805000329  0.28907660898213805  0.6924240360121623  1.0000
  C   C38       1.0  0.3418078197955979  0.7890766100176467  0.8075759642124092  1.0000
  C   C39       1.0  0.3418078197895848  0.7109233909362935  0.30757596418702826  1.0000
  C   C40       1.0  0.6581921804940198  0.21092339097707777  0.1924240359867814  1.0000
  C   C41       1.0  0.770924260837266  0.35150205807042356  0.803707687211612  1.0000
  C   C42       1.0  0.22907573884073273  0.8515020580296394  0.6962923127725898  1.0000
  C   C43       1.0  0.22907573883471966  0.648497941848008  0.19629231274720887  1.0000
  C   C44       1.0  0.7709242608312529  0.14849794188879223  0.3037076871862311  1.0000
  C   C45       1.0  0.8335099520793449  0.3680401183912138  0.8849002731818622  1.0000
  C   C46       1.0  0.16649004821633004  0.8680401183504296  0.6150997264399055  1.0000
  C   C47       1.0  0.16649004821031696  0.6319598826035107  0.11509972641452447  1.0000
  C   C48       1.0  0.8335099520733317  0.13195988264429487  0.3849002731564811  1.0000
  C   C49       1.0  0.8904095299721407  0.4769149479586196  0.8920663073430802  1.0000
  C   C50       1.0  0.10959047032353408  0.9769149479178355  0.6079336922786873  1.0000
  C   C51       1.0  0.10959047031752099  0.5230850519598119  0.10793369225330628  1.0000
  C   C52       1.0  0.8904095299661278  0.023085052000596174  0.39206630731769937  1.0000
  C   C53       1.0  0.8849388542454358  0.5653510875649592  0.8213002982897164  1.0000
  C   C54       1.0  0.11506114605019489  0.06535108760574336  0.6786997019348551  1.0000
  C   C55       1.0  0.1150611460441818  0.43464891235347247  0.17869970190947415  1.0000
  C   C56       1.0  0.8849388542394229  0.9346489123126883  0.3213002982643355  1.0000
  C   C57       1.0  0.8222714470963172  0.5489461711318618  0.7401109551790032  1.0000
  C   C58       1.0  0.17772855319931355  0.04894617117264599  0.7598890450455684  1.0000
  C   C59       1.0  0.17772855319330044  0.45105382878656985  0.25988904502018734  1.0000
  C   C60       1.0  0.8222714470903042  0.9510538287457856  0.24011095515362224  1.0000
  C   C61       1.0  0.7650552390928115  0.4399964886231486  0.7324226407280638  1.0000
  C   C62       1.0  0.23494476120281926  0.9399964885823644  0.7675773594965078  1.0000
  C   C63       1.0  0.23494476119680618  0.560003511295283  0.2675773594711268  1.0000
  C   C64       1.0  0.7650552390867984  0.060003511336067246  0.2324226407026828  1.0000
  C   C65       1.0  0.18451046243467437  0.9076180575831191  0.34463026678786945  1.0000
  C   C66       1.0  0.8154895378489302  0.40761805762390324  0.1553697333859401  1.0000
  C   C67       1.0  0.8154895378549433  0.09238194233531259  0.6553697334113211  1.0000
  C   C68       1.0  0.18451046244068742  0.5923819422945283  0.8446302668132505  1.0000
  C   C69       1.0  0.11898109245909291  0.9311838164277491  0.2655866102027925  1.0000
  C   C70       1.0  0.8810189078245559  0.43118381646853327  0.23441338936821307  1.0000
  C   C71       1.0  0.8810189078305689  0.06881618349068258  0.734413389393594  1.0000
  C   C72       1.0  0.11898109246510602  0.5688161834498984  0.7655866102281734  1.0000
  C   C73       1.0  0.04968407580382904  0.8422222586183264  0.24016398761214391  1.0000
  C   C74       1.0  0.9503159244797754  0.34222225865911066  0.2598360125616656  1.0000
  C   C75       1.0  0.9503159244857887  0.15777774130010513  0.7598360125870467  1.0000
  C   C76       1.0  0.04968407580984213  0.657777741259321  0.740163987637525  1.0000
  C   C77       1.0  0.04532735425124582  0.728578740138586  0.29348344653093367  1.0000
  C   C78       1.0  0.9546726454147266  0.22857874017937024  0.20651655340250624  1.0000
  C   C79       1.0  0.9546726454207397  0.27142125977984555  0.7065165534278872  1.0000
  C   C80       1.0  0.04532735425725892  0.7714212597390614  0.7934834465563146  1.0000
  C   C81       1.0  0.10994795835107364  0.7054717037795107  0.3729570982757535  1.0000
  C   C82       1.0  0.8900520419325308  0.20547170382029498  0.12704290189805603  1.0000
  C   C83       1.0  0.890052041938544  0.29452829613892084  0.627042901923437  1.0000
  C   C84       1.0  0.10994795835708673  0.7945282960981366  0.8729570983011345  1.0000
  C   C85       1.0  0.17927403620864116  0.7947536782861163  0.39837743425669364  1.0000
  C   C86       1.0  0.8207259640749633  0.2947536783269005  0.10162256591711594  1.0000
  C   C87       1.0  0.8207259640809765  0.20524632163231527  0.601622565942497  1.0000
  C   C88       1.0  0.17927403621465426  0.7052463215915311  0.8983774342820747  1.0000
  C   C89       1.0  0.2606756379814467  0.000525888543073988  0.37004257957880293  1.0000
  C   C90       1.0  0.7393243623021578  0.5005258885022897  0.12995742059500667  1.0000
  C   C91       1.0  0.7393243623081709  0.9994741113753577  0.6299574206203876  1.0000
  C   C92       1.0  0.26067563798745985  0.4994741114161418  0.870042579604184  1.0000
  C   C93       1.0  0.2301205930546957  0.07053488008186233  0.029941168635713993  1.0000
  C   C94       1.0  0.7698794072289089  0.5705348800410782  0.4700588315380956  1.0000
  C   C95       1.0  0.769879407234922  0.9294651198365693  0.9700588315634766  1.0000
  C   C96       1.0  0.23012059306070878  0.4294651198773535  0.5299411686610951  1.0000
  C   C97       1.0  0.21175812812751216  0.1858686218244968  0.9713694166919139  1.0000
  C   C98       1.0  0.7882418721681185  0.6858686217837127  0.5286305835326578  1.0000
  C   C99       1.0  0.7882418721621054  0.8141313780939349  0.028630583507276777  1.0000
  C   C100      1.0  0.2117581281214991  0.31413137813471903  0.47136941666653276  1.0000
  C   C101      1.0  0.13686556790013327  0.25898211238504004  0.9493965094538509  1.0000
  C   C102      1.0  0.8631344323954975  0.7589821123442558  0.5506034907707208  1.0000
  C   C103      1.0  0.8631344323894844  0.7410178875333915  0.0506034907453398  1.0000
  C   C104      1.0  0.1368655678941202  0.24101788757417572  0.4493965094284698  1.0000
  C   C105      1.0  0.07919535598399971  0.215987300570146  0.9849017554082535  1.0000
  C   C106      1.0  0.9208046443116752  0.7159873005293619  0.515098244213514  1.0000
  C   C107      1.0  0.9208046443056621  0.7840126993482855  0.015098244188132976  1.0000
  C   C108      1.0  0.07919535597798662  0.28401269938906976  0.48490175538287267  1.0000
  C   C109      1.0  0.0977116117345455  0.10286949950291079  0.044556016785055615  1.0000
  C   C110      1.0  0.9022883885491032  0.6028694994621266  0.45544398278595  1.0000
  C   C111      1.0  0.9022883885551163  0.8971305004155208  0.9554439828113309  1.0000
  C   C112      1.0  0.09771161174055859  0.39713050045630505  0.5445560168104366  1.0000
  C   C113      1.0  0.17325418559611072  0.031727140343203834  0.06772982082164478  1.0000
  C   C114      1.0  0.8267458146874939  0.5317271403024196  0.43227017935216483  1.0000
  C   C115      1.0  0.8267458146935069  0.9682728595752277  0.9322701793775459  1.0000
  C   C116      1.0  0.1732541856021238  0.46827285961601195  0.5677298208470258  1.0000
  C   C117      1.0  0.31021201614277283  0.9900428506477336  0.052673753084847424  1.0000
  C   C118      1.0  0.6897879841408316  0.49004285068851783  0.4473262470889622  1.0000
  C   C119      1.0  0.689787984146845  0.009957149270698004  0.9473262471143431  1.0000
  C   C120      1.0  0.3102120161487859  0.5099571492299139  0.5526737531102284  1.0000
  N   N1        1.0  0.49943537838228397  0.38441546152469647  0.391773730494074  1.0000
  N   N2        1.0  0.5005646212836885  0.8844154614839124  0.1082262694393659  1.0000
  N   N3        1.0  0.5005646212897016  0.615584539470028  0.6082262694647469  1.0000
  N   N4        1.0  0.499435378388297  0.11558453951081221  0.8917737305194551  1.0000
  N   N5        1.0  0.38582233605671695  0.2541727299149978  0.3390251147255261  1.0000
  N   N6        1.0  0.6141776642268877  0.7541727298742137  0.16097488544828348  1.0000
  N   N7        1.0  0.6141776642329007  0.7458272700034339  0.6609748854736645  1.0000
  N   N8        1.0  0.3858223360627301  0.24582727004421803  0.8390251147509071  1.0000
  N   N9        1.0  0.6938682467488789  0.39655387654290175  0.6644179633207988  1.0000
  N   N10       1.0  0.3061317529291197  0.8965538765021175  0.835582036663403  1.0000
  N   N11       1.0  0.3061317529231066  0.6034461233755298  0.33558203663802194  1.0000
  N   N12       1.0  0.6938682467428658  0.10344612341631407  0.1644179632954179  1.0000
  N   N13       1.0  0.7038533600432079  0.25918540904300946  0.7753818592673576  1.0000
  N   N14       1.0  0.29614664025246695  0.7591854090022252  0.72461814035441  1.0000
  N   N15       1.0  0.2961466402464539  0.7408145908754222  0.2246181403290289  1.0000
  N   N16       1.0  0.7038533600371948  0.24081459091620636  0.27538185924197667  1.0000
  N   N17       1.0  0.5571303806545234  0.24349875559075346  0.5499533015687984  1.0000
  N   N18       1.0  0.44286961902347527  0.7434987555499692  0.9500466984154035  1.0000
  N   N19       1.0  0.44286961901746225  0.756501245403971  0.4500466983900224  1.0000
  N   N20       1.0  0.5571303806485103  0.2565012454447553  0.04995330154341746  1.0000
  O   O1        1.0  0.32189941494575686  0.9700032156472361  0.4377592820788884  1.0000
  O   O2        1.0  0.6781005847202156  0.4700032156880203  0.06224071785455145  1.0000
  O   O3        1.0  0.6781005847262288  0.029996784271195526  0.5622407178799325  1.0000
  O   O4        1.0  0.32189941495177  0.5299967842304113  0.9377592821042695  1.0000
  O   O5        1.0  0.25746243698672866  0.1065209748742452  0.3190855480831442  1.0000
  O   O6        1.0  0.7425375626792438  0.606520974833461  0.1809144518502957  1.0000
  O   O7        1.0  0.7425375626852571  0.8934790250441864  0.6809144518756767  1.0000
  O   O8        1.0  0.2574624369927417  0.3934790250849706  0.8190855481085252  1.0000
  O   O9        1.0  0.33361989205216813  0.9079159141051293  0.11824340979594032  1.0000
  O   O10       1.0  0.6663801082314365  0.40791591414591344  0.3817565903778693  1.0000
  O   O11       1.0  0.6663801082374495  0.09208408581330241  0.8817565904032503  1.0000
  O   O12       1.0  0.3336198920581812  0.5920840857725183  0.6182434098213212  1.0000
  O   O13       1.0  0.352834546322156  0.009125187785725958  0.00488493301246135  1.0000
  O   O14       1.0  0.6471654533438607  0.5091251877449418  0.4951150663181746  1.0000
  O   O15       1.0  0.6471654533498737  0.9908748121327056  0.9951150663435556  1.0000
  O   O16       1.0  0.352834546328169  0.4908748121734899  0.5048849330378423  1.0000
