data_image0
_chemical_formula_structural       H100C120N28O32
_chemical_formula_sum              "H100 C120 N28 O32"
_cell_length_a       18.701332272854685
_cell_length_b       9.289049885131636
_cell_length_c       16.590799539356937
_cell_angle_alpha    90.0
_cell_angle_beta     107.36273755654221
_cell_angle_gamma    90.0

_space_group_name_H-M_alt    "P 1"
_space_group_IT_number       1

loop_
  _space_group_symop_operation_xyz
  'x, y, z'

loop_
  _atom_site_type_symbol
  _atom_site_label
  _atom_site_symmetry_multiplicity
  _atom_site_fract_x
  _atom_site_fract_y
  _atom_site_fract_z
  _atom_site_occupancy
  H   H1        1.0  0.2162061500418725  0.7833547111903449  0.5344910554537591  1.0000
  H   H2        1.0  0.7837938498935204  0.28335471146656466  0.9655089447308475  1.0000
  H   H3        1.0  0.7837938498301084  0.21664528933375213  0.46550894476075805  1.0000
  H   H4        1.0  0.21620615053870826  0.7166452890575326  0.03449105567346454  1.0000
  H   H5        1.0  0.33857462639667335  0.65077034301171  0.5731873272516826  1.0000
  H   H6        1.0  0.6614253735399624  0.15077034328792963  0.9268126723305998  1.0000
  H   H7        1.0  0.6614253734765505  0.3492296564358508  0.42681267236051046  1.0000
  H   H8        1.0  0.3385746263332613  0.8492296561596312  0.07318732728159315  1.0000
  H   H9        1.0  0.4132191041529728  0.9168031451345054  0.40169295590186316  1.0000
  H   H10       1.0  0.5867808956555959  0.4168031443341887  0.09830704434256456  1.0000
  H   H11       1.0  0.5867808957190079  0.08319685538959169  0.5983070443126541  1.0000
  H   H12       1.0  0.41321910421638497  0.5831968551133722  0.9016929558719526  1.0000
  H   H13       1.0  0.28938254037464856  0.04281066254542615  0.35925436021993157  1.0000
  H   H14       1.0  0.7106174594339202  0.5428106622692066  0.1407456400244961  1.0000
  H   H15       1.0  0.7106174594973322  0.957189337978671  0.6407456399945856  1.0000
  H   H16       1.0  0.2893825404380606  0.45718933717835425  0.8592543601900211  1.0000
  H   H17       1.0  0.15431981172478618  0.8142400389200641  0.15159210022988862  1.0000
  H   H18       1.0  0.8456801880850257  0.3142400381197474  0.348407899412215  1.0000
  H   H19       1.0  0.8456801881484377  0.18575996160403302  0.8484078993823044  1.0000
  H   H20       1.0  0.15431981178819829  0.6857599613278134  0.651592100199978  1.0000
  H   H21       1.0  0.3456474419178793  0.9848408785749954  0.2398669415600635  1.0000
  H   H22       1.0  0.6543525578919325  0.484840878851215  0.2601330580820401  1.0000
  H   H23       1.0  0.6543525579553446  0.015159121949101743  0.7601330580521296  1.0000
  H   H24       1.0  0.3456474419812913  0.5151591216728821  0.739866941530153  1.0000
  H   H25       1.0  0.4570219336699425  0.14755364078665154  0.2674708785495767  1.0000
  H   H26       1.0  0.5429780667001172  0.647553640510432  0.23252912128232178  1.0000
  H   H27       1.0  0.5429780667622862  0.8524463597374456  0.7325291218547354  1.0000
  H   H28       1.0  0.45702193373335454  0.35244635893712883  0.7674708785196661  1.0000
  H   H29       1.0  0.34912178008141787  0.38119615609641233  0.03966350191798149  1.0000
  H   H30       1.0  0.6508782197271509  0.8811961568967291  0.46033649832644624  1.0000
  H   H31       1.0  0.6508782197905629  0.6188038433511484  0.9603364982965357  1.0000
  H   H32       1.0  0.3491217801448299  0.11880384362736804  0.539663501888071  1.0000
  H   H33       1.0  0.2369367131652697  0.21659274467030046  0.012245773894170591  1.0000
  H   H34       1.0  0.763063286643299  0.7165927443940808  0.48775422635025706  1.0000
  H   H35       1.0  0.7630632867067112  0.7834072558537967  0.9877542263203466  1.0000
  H   H36       1.0  0.2369367132286818  0.28340725505347997  0.5122457738642601  1.0000
  H   H37       1.0  0.15675034461637086  0.05923763321378721  0.5839763390690498  1.0000
  H   H38       1.0  0.8432496553202651  0.5592376329375676  0.9160236605132327  1.0000
  H   H39       1.0  0.8432496552568529  0.9407623673103099  0.4160236605431433  1.0000
  H   H40       1.0  0.15675034455295878  0.4407623665099931  0.08397633909896031  1.0000
  H   H41       1.0  0.1744485545912846  0.3154812091913393  0.7950366096507068  1.0000
  H   H42       1.0  0.8255514453441083  0.8154812089151198  0.7049633905338998  1.0000
  H   H43       1.0  0.8255514452806962  0.6845187902562214  0.2049633905638103  1.0000
  H   H44       1.0  0.17444855452787247  0.18451879053244105  0.2950366096806174  1.0000
  H   H45       1.0  0.08467361028427983  0.3216407487252568  0.5223297539089429  1.0000
  H   H46       1.0  0.9153263896511129  0.8216407484490371  0.9776702462756638  1.0000
  H   H47       1.0  0.9153263895877011  0.6783592517988404  0.4776702463055743  1.0000
  H   H48       1.0  0.08467361022086772  0.17835925207505995  0.022329753938853364  1.0000
  H   H49       1.0  0.051485765807615595  0.07868919739251047  0.4270297404466904  1.0000
  H   H50       1.0  0.9485142345624441  0.5786891971162909  0.07297025938520817  1.0000
  H   H51       1.0  0.948514234625856  0.9213108031315868  0.5729702593552977  1.0000
  H   H52       1.0  0.051485765871027704  0.42131080233126994  0.9270297404167799  1.0000
  H   H53       1.0  0.31356650719124185  0.20594262423566376  0.9050433783103002  1.0000
  H   H54       1.0  0.6864334927441511  0.7059426239594442  0.5949566218743063  1.0000
  H   H55       1.0  0.6864334926807389  0.7940573752118971  0.09495662190421691  1.0000
  H   H56       1.0  0.3135665071278297  0.2940573754881166  0.40504337834021076  1.0000
  H   H57       1.0  0.4118781413350532  0.026003389257993743  0.9065830422889312  1.0000
  H   H58       1.0  0.5881218586003397  0.5260033889817741  0.5934169578956756  1.0000
  H   H59       1.0  0.5881218585369276  0.9739966101895671  0.09341695792558605  1.0000
  H   H60       1.0  0.411878141271641  0.47399661046578667  0.4065830423188416  1.0000
  H   H61       1.0  0.4007438712965534  0.8651790419237383  0.7841753463459025  1.0000
  H   H62       1.0  0.5992561286400825  0.36517904219995795  0.7158246532363802  1.0000
  H   H63       1.0  0.5992561285766704  0.13482095752382245  0.21582465326629066  1.0000
  H   H64       1.0  0.40074387123314126  0.6348209583241392  0.28417534637581293  1.0000
  H   H65       1.0  0.29288023904434807  0.8843422343063011  0.6542516913275658  1.0000
  H   H66       1.0  0.7071197608922879  0.3843422345825207  0.8457483082547169  1.0000
  H   H67       1.0  0.7071197608288757  0.11565776621779605  0.3457483082846273  1.0000
  H   H68       1.0  0.29288023898093596  0.6156577659415764  0.1542516913574763  1.0000
  H   H69       1.0  0.028105895408314416  0.2221586153071624  0.6585637887948399  1.0000
  H   H70       1.0  0.9718941045283217  0.7221586150309428  0.8414362107874426  1.0000
  H   H71       1.0  0.9718941044649094  0.7778413852169347  0.34143621081735315  1.0000
  H   H72       1.0  0.028105895344902307  0.277841384416618  0.1585637888247505  1.0000
  H   H73       1.0  0.07393599330997601  0.386931779293493  0.6550097958000811  1.0000
  H   H74       1.0  0.92606400662666  0.8869317790172733  0.8449902037822016  1.0000
  H   H75       1.0  0.9260640065632478  0.6130682212306042  0.34499020381211204  1.0000
  H   H76       1.0  0.07393599324656389  0.1130682215068238  0.1550097958299916  1.0000
  H   H77       1.0  0.9512775952246277  0.38479757178625024  0.4944413999419569  1.0000
  H   H78       1.0  0.04872240458518388  0.8847975715100307  0.00555859970014668  1.0000
  H   H79       1.0  0.048722404648595986  0.6152024287378469  0.5055585996702362  1.0000
  H   H80       1.0  0.951277595286797  0.11520242901406653  0.9944414005143706  1.0000
  H   H81       1.0  0.938714761396447  0.21231494118217364  0.5324738228427712  1.0000
  H   H82       1.0  0.06128523853894584  0.712314940905954  0.9675261773418354  1.0000
  H   H83       1.0  0.06128523847553372  0.7876850593419236  0.46752617737174595  1.0000
  H   H84       1.0  0.9387147613330348  0.2876850596181431  0.03247382287268171  1.0000
  H   H85       1.0  0.7975089579931051  0.21753591540448108  0.1784283980582943  1.0000
  H   H86       1.0  0.2024910418167068  0.7175359151282615  0.3215716015838094  1.0000
  H   H87       1.0  0.20249104188011888  0.7824640851196161  0.8215716015538989  1.0000
  H   H88       1.0  0.7975089580552739  0.2824640853958357  0.6784283986307079  1.0000
  H   H89       1.0  0.8336060575070933  0.051782109682704504  0.07668676291592517  1.0000
  H   H90       1.0  0.16639394286296624  0.5517821104830213  0.42331323691597333  1.0000
  H   H91       1.0  0.16639394292513526  0.9482178897648562  0.9233132374883869  1.0000
  H   H92       1.0  0.8336060575705054  0.44821789004107593  0.5766867628860147  1.0000
  H   H93       1.0  0.9493974292529817  0.9123204434034435  0.1208405376656086  1.0000
  H   H94       1.0  0.050602570555586986  0.4123204436796632  0.3791594625788191  1.0000
  H   H95       1.0  0.050602570618999095  0.08767955604411724  0.8791594625489086  1.0000
  H   H96       1.0  0.9493974293163937  0.587679556844434  0.6208405376356981  1.0000
  H   H97       1.0  0.03926796075539853  0.933880933709408  0.266376165648657  1.0000
  H   H98       1.0  0.960732039614661  0.4338809339856275  0.2336238341832416  1.0000
  H   H99       1.0  0.9607320396780733  0.06611906573815288  0.7336238341533312  1.0000
  H   H100      1.0  0.03926796081881064  0.5661190654619332  0.7663761656187466  1.0000
  C   C1        1.0  0.2457770959341098  0.9235971887428853  0.44601975325359927  1.0000
  C   C2        1.0  0.7542229038757019  0.4235971890191049  0.05398024638850435  1.0000
  C   C3        1.0  0.7542229039391141  0.07640281178121186  0.5539802463585939  1.0000
  C   C4        1.0  0.24577709599752187  0.5764028115049922  0.9460197532236888  1.0000
  C   C5        1.0  0.25920800927913085  0.811618503854462  0.5052556440548387  1.0000
  C   C6        1.0  0.7407919906562621  0.3116185041306816  0.994744356129768  1.0000
  C   C7        1.0  0.7407919905928501  0.18838149666963516  0.4947443561596785  1.0000
  C   C8        1.0  0.2592080092157187  0.6883814963934156  0.005255644084749225  1.0000
  C   C9        1.0  0.326735985875455  0.73726325024499  0.5269133523848588  1.0000
  C   C10       1.0  0.6732640140599379  0.23726325052120956  0.9730866477997479  1.0000
  C   C11       1.0  0.6732640139977689  0.26273674920257084  0.4730866472273343  1.0000
  C   C12       1.0  0.3267359858120429  0.7627367500028875  0.02691335241476924  1.0000
  C   C13       1.0  0.38107063670762126  0.7781447477819814  0.48939994498597283  1.0000
  C   C14       1.0  0.6189293631021905  0.278144748058201  0.010600054656130722  1.0000
  C   C15       1.0  0.6189293631643596  0.22185525166557934  0.5106000552285442  1.0000
  C   C16       1.0  0.3810706367710333  0.7218552524658961  0.9893999449560623  1.0000
  C   C17       1.0  0.36925711393890687  0.8876978552132243  0.42934806995201863  1.0000
  C   C18       1.0  0.6307428858709049  0.3876978554894439  0.07065192969008495  1.0000
  C   C19       1.0  0.6307428859343169  0.11230214531087288  0.5706519296601745  1.0000
  C   C20       1.0  0.369257114002319  0.6123021450346533  0.9293480699221082  1.0000
  C   C21       1.0  0.30053534117952363  0.9585418056858482  0.40695281825778945  1.0000
  C   C22       1.0  0.699464658629045  0.45854180596206795  0.0930471819866382  1.0000
  C   C23       1.0  0.6994646586924571  0.04145819483824881  0.5930471819567277  1.0000
  C   C24       1.0  0.3005353412429358  0.5414581945620293  0.9069528182278791  1.0000
  C   C25       1.0  0.17298208365481868  0.005389654552306297  0.4255094073450798  1.0000
  C   C26       1.0  0.8270179161549931  0.505389655352623  0.0744905922970238  1.0000
  C   C27       1.0  0.8270179162184051  0.9946103448952545  0.5744905922671134  1.0000
  C   C28       1.0  0.1729820837182308  0.49461034517147406  0.9255094073151693  1.0000
  C   C29       1.0  0.2841769297303719  0.09324873164762051  0.12552650963295506  1.0000
  C   C30       1.0  0.7158230706384446  0.5932487324479373  0.3744734908012675  1.0000
  C   C31       1.0  0.7158230707018568  0.9067512677999402  0.874473490771357  1.0000
  C   C32       1.0  0.28417692979378406  0.4067512680761599  0.6255265096030446  1.0000
  C   C33       1.0  0.3462694739883076  0.07299373115492655  0.1968903817378658  1.0000
  C   C34       1.0  0.6537305258215041  0.5729937319552433  0.30310961790423785  1.0000
  C   C35       1.0  0.6537305258849163  0.9270062682926343  0.8031096178743273  1.0000
  C   C36       1.0  0.3462694740517197  0.4270062685688538  0.6968903817079553  1.0000
  C   C37       1.0  0.40856162261624385  0.16246446177618024  0.21221523829110472  1.0000
  C   C38       1.0  0.5914383771923248  0.6624644614999606  0.287784761953323  1.0000
  C   C39       1.0  0.5914383772557369  0.837535538747917  0.7877847619234124  1.0000
  C   C40       1.0  0.40856162267965596  0.3375355390241365  0.7122152382611943  1.0000
  C   C41       1.0  0.40712394607266345  0.2729449170101072  0.15498328603502803  1.0000
  C   C42       1.0  0.5928760537371482  0.7729449167338877  0.34501671360707553  1.0000
  C   C43       1.0  0.5928760538005604  0.72705508351399  0.845016713577165  1.0000
  C   C44       1.0  0.40712394613607555  0.22705508379020956  0.6549832860051176  1.0000
  C   C45       1.0  0.34672597678036826  0.29442703654521746  0.08267329583596507  1.0000
  C   C46       1.0  0.6532740230294435  0.7944270362689979  0.4173267038061385  1.0000
  C   C47       1.0  0.6532740230928556  0.7055729639788797  0.917326703776228  1.0000
  C   C48       1.0  0.34672597684253736  0.20557296317856294  0.5826732964083786  1.0000
  C   C49       1.0  0.2852852225699852  0.20334637377967232  0.06799122690232924  1.0000
  C   C50       1.0  0.7147147772398265  0.7033463735034527  0.4320087727397744  1.0000
  C   C51       1.0  0.7147147773019956  0.7966536256678884  0.9320087733121879  1.0000
  C   C52       1.0  0.2852852226333973  0.29665362594410805  0.5679912268724187  1.0000
  C   C53       1.0  0.21612894484455517  0.99803341403507  0.11098593228336004  1.0000
  C   C54       1.0  0.7838710549652566  0.49803341431128956  0.38901406735874355  1.0000
  C   C55       1.0  0.7838710550286687  0.001966585412490884  0.8890140673288331  1.0000
  C   C56       1.0  0.21612894490796727  0.5019665862128077  0.6109859322534495  1.0000
  C   C57       1.0  0.24915179952406574  0.14777469568735638  0.7768922769183869  1.0000
  C   C58       1.0  0.750848200411327  0.6477746964876732  0.7231077232662196  1.0000
  C   C59       1.0  0.750848200347915  0.8522253037602044  0.2231077232961302  1.0000
  C   C60       1.0  0.24915179946065366  0.35222530403642405  0.2768922769482975  1.0000
  C   C61       1.0  0.30897917201006075  0.13724935550627987  0.8506495278046527  1.0000
  C   C62       1.0  0.6910208279253321  0.6372493552300602  0.6493504723799539  1.0000
  C   C63       1.0  0.6910208278619201  0.8627506450178173  0.14935047240986438  1.0000
  C   C64       1.0  0.3089791719466487  0.36275064421750053  0.3506495278345633  1.0000
  C   C65       1.0  0.36306399657594424  0.034178025086093175  0.8513214582166859  1.0000
  C   C66       1.0  0.6369360033606917  0.5341780248098736  0.6486785413655967  1.0000
  C   C67       1.0  0.6369360032972796  0.9658219754380041  0.14867854139550712  1.0000
  C   C68       1.0  0.36306399651253213  0.46582197571422357  0.35132145824659644  1.0000
  C   C69       1.0  0.3570969113387555  0.9443757885336932  0.7812732918342213  1.0000
  C   C70       1.0  0.6429030885966374  0.4443757888099128  0.7187267083503855  1.0000
  C   C71       1.0  0.6429030885332253  0.05562421091386763  0.21872670838029595  1.0000
  C   C72       1.0  0.3570969118355912  0.555624210637648  0.2812732920539267  1.0000
  C   C73       1.0  0.29707104819847335  0.954380866679388  0.7077443032319971  1.0000
  C   C74       1.0  0.7029289517369196  0.4543808658790712  0.7922556969526098  1.0000
  C   C75       1.0  0.7029289516735074  0.04561913384470912  0.2922556969825202  1.0000
  C   C76       1.0  0.29707104813506124  0.5456191335684895  0.20774430326190751  1.0000
  C   C77       1.0  0.24304600931641362  0.05833111208362528  0.7063656939906459  1.0000
  C   C78       1.0  0.7569539906189793  0.558331112883942  0.7936343061939608  1.0000
  C   C79       1.0  0.7569539905555671  0.9416688873639356  0.2936343062238714  1.0000
  C   C80       1.0  0.24304600925300157  0.4416688876401551  0.20636569402055632  1.0000
  C   C81       1.0  0.14414496078908556  0.2045706130873116  0.6770026297329261  1.0000
  C   C82       1.0  0.8558550391463075  0.704570612811092  0.8229973704516805  1.0000
  C   C83       1.0  0.8558550390828952  0.7954293874367856  0.3229973704815911  1.0000
  C   C84       1.0  0.14414496072567343  0.2954293877130052  0.17700262976283657  1.0000
  C   C85       1.0  0.07083512912249497  0.27339776203215116  0.6343928651109272  1.0000
  C   C86       1.0  0.929164870812898  0.7733977617559316  0.8656071350736795  1.0000
  C   C87       1.0  0.9291648707494858  0.726602238491946  0.36560713510359  1.0000
  C   C88       1.0  0.07083512962057377  0.22660223876816557  0.13439286472830855  1.0000
  C   C89       1.0  0.972470103926186  0.2730078965405473  0.4996034260519368  1.0000
  C   C90       1.0  0.027529895882382666  0.7730078973408641  0.00039657419249087953  1.0000
  C   C91       1.0  0.027529895945794775  0.7269921029070135  0.5003965741625804  1.0000
  C   C92       1.0  0.9724701039895982  0.22699210318323312  0.9996034260220263  1.0000
  C   C93       1.0  0.955341164967529  0.2125806260509728  0.4129250088101093  1.0000
  C   C94       1.0  0.04465883484103958  0.7125806257747532  0.08707499143431842  1.0000
  C   C95       1.0  0.04465883490445169  0.787419373396588  0.5870749914044079  1.0000
  C   C96       1.0  0.955341165030941  0.2874193736728076  0.9129250087801987  1.0000
  C   C97       1.0  0.8989809759671356  0.16569983249456818  0.2783757098354546  1.0000
  C   C98       1.0  0.10101902384143314  0.6656998322183486  0.22162429040897305  1.0000
  C   C99       1.0  0.10101902390484525  0.834300168029529  0.7216242903790625  1.0000
  C   C100      1.0  0.8989809760305478  0.33430016830574855  0.778375709805544  1.0000
  C   C101      1.0  0.8496333427489368  0.15675687373912356  0.19675501285879857  1.0000
  C   C102      1.0  0.15036665705963193  0.6567568734629039  0.3032449873856291  1.0000
  C   C103      1.0  0.150366657123044  0.8432431257084372  0.8032449873557186  1.0000
  C   C104      1.0  0.8496333428123488  0.34324312598465684  0.6967550128288881  1.0000
  C   C105      1.0  0.8697593314970818  0.0642110934246046  0.14123434607131596  1.0000
  C   C106      1.0  0.1302406683127299  0.564211093148385  0.35876565357078766  1.0000
  C   C107      1.0  0.13024066837489895  0.9357889070994926  0.8587656541432012  1.0000
  C   C108      1.0  0.8697593315604939  0.4357889073757122  0.6412343460414054  1.0000
  C   C109      1.0  0.9366851405782758  0.9840586694050748  0.1665848211128187  1.0000
  C   C110      1.0  0.06331485979054069  0.48405866968129435  0.33341517932140385  1.0000
  C   C111      1.0  0.0633148598539528  0.015941330042485994  0.8334151792914933  1.0000
  C   C112      1.0  0.9366851400814401  0.5159413297662664  0.6665848208931132  1.0000
  C   C113      1.0  0.9867501309240465  0.9935193118913063  0.24773077881593758  1.0000
  C   C114      1.0  0.01324986944601312  0.4935193121675259  0.25226922101596094  1.0000
  C   C115      1.0  0.01324986950942523  0.006480687556254513  0.7522692209860505  1.0000
  C   C116      1.0  0.9867501309874586  0.5064806872800349  0.7477307787860271  1.0000
  C   C117      1.0  0.9664207315726233  0.08575354851684186  0.3037216460517385  1.0000
  C   C118      1.0  0.03357926823718853  0.5857535482406223  0.1962783535903651  1.0000
  C   C119      1.0  0.03357926830060064  0.9142464520072553  0.6962783535604546  1.0000
  C   C120      1.0  0.9664207316347921  0.4142464522834749  0.803721646624152  1.0000
  N   N1        1.0  0.45337099848203755  0.702477664636584  0.5153078038324249  1.0000
  N   N2        1.0  0.5466290014533554  0.2024776649128036  0.9846921963521819  1.0000
  N   N3        1.0  0.5466290013899434  0.2975223348109768  0.4846921963820922  1.0000
  N   N4        1.0  0.45337099841986844  0.7975223345347572  0.01530780326001135  1.0000
  N   N5        1.0  0.47113258631579313  0.3703181070763787  0.17087183316186613  1.0000
  N   N6        1.0  0.5288674134927756  0.8703181068001591  0.32912816708256154  1.0000
  N   N7        1.0  0.5288674135561876  0.6296818934477184  0.829128167052651  1.0000
  N   N8        1.0  0.4711325863792052  0.12968189372393807  0.6708718331319556  1.0000
  N   N9        1.0  0.17675393605796946  0.0979458191366045  0.6455351167944829  1.0000
  N   N10       1.0  0.8232460638774234  0.5979458188603849  0.8544648833901235  1.0000
  N   N11       1.0  0.8232460643742592  0.9020541803109562  0.35446488360982903  1.0000
  N   N12       1.0  0.17675393599455738  0.4020541805871759  0.14553511682439357  1.0000
  N   N13       1.0  0.18686931752063274  0.23685628209637088  0.7552239154553035  1.0000
  N   N14       1.0  0.8131306824147602  0.7368562818201513  0.7447760847293031  1.0000
  N   N15       1.0  0.813130682351348  0.7631437184277263  0.24477608475921364  1.0000
  N   N16       1.0  0.18686931745722066  0.2631437187039459  0.255223915485214  1.0000
  N   N17       1.0  0.05148755899050184  0.2527439489541217  0.5439910828043367  1.0000
  N   N18       1.0  0.9485124409448911  0.7527439486779021  0.9560089173802699  1.0000
  N   N19       1.0  0.9485124408814788  0.7472560515699754  0.4560089174101805  1.0000
  N   N20       1.0  0.051487558927089734  0.24725605184619506  0.04399108283424723  1.0000
  N   N21       1.0  0.8946502836109458  0.24359620391552392  0.348081401944937  1.0000
  N   N22       1.0  0.10534971619762298  0.7435962047158406  0.1519185982994907  1.0000
  N   N23       1.0  0.10534971626103508  0.7564037955320368  0.6519185982695802  1.0000
  N   N24       1.0  0.8946502836743577  0.25640379580825645  0.8480814019150266  1.0000
  N   N25       1.0  0.9995502782356743  0.11826989881478406  0.38839591883858243  1.0000
  N   N26       1.0  0.0004497221331420449  0.6182698985385644  0.11160408159564014  1.0000
  N   N27       1.0  0.00044972219655415365  0.8817301017093131  0.6116040815657297  1.0000
  N   N28       1.0  0.9995502782990866  0.38173010090899634  0.888395918808672  1.0000
  O   O1        1.0  0.13363791260003072  0.9926245056298711  0.47658467529302295  1.0000
  O   O2        1.0  0.8663620872085379  0.4926245059060907  0.023415324951404703  1.0000
  O   O3        1.0  0.8663620872719501  0.0073754938176897435  0.5234153249214942  1.0000
  O   O4        1.0  0.13363791266344283  0.5073754935414702  0.9765846752631124  1.0000
  O   O5        1.0  0.15313035603826428  0.08097634411501932  0.3592226952708379  1.0000
  O   O6        1.0  0.8468696443305522  0.5809763449153361  0.1407773051633847  1.0000
  O   O7        1.0  0.8468696438337165  0.9190236553325415  0.6407773049436792  1.0000
  O   O8        1.0  0.15313035610167636  0.4190236556087611  0.8592226952409273  1.0000
  O   O9        1.0  0.4600130022210936  0.5999682861990597  0.564973052548782  1.0000
  O   O10       1.0  0.5399869977142994  0.09996828539874297  0.9350269476358246  1.0000
  O   O11       1.0  0.5399869976521302  0.4000317143250374  0.4350269470634111  1.0000
  O   O12       1.0  0.4600130021576814  0.9000317140488178  0.06497305257869251  1.0000
  O   O13       1.0  0.5035614595326349  0.7444897331286103  0.4860062978644891  1.0000
  O   O14       1.0  0.4964385408361817  0.24448973340482993  0.013993702569733393  1.0000
  O   O15       1.0  0.4964385408995938  0.2555102663189504  0.5139937025398229  1.0000
  O   O16       1.0  0.5035614590357991  0.7555102671192672  0.9860062976447839  1.0000
  O   O17       1.0  0.22210809374162124  0.8928919009548912  0.1627440504325858  1.0000
  O   O18       1.0  0.7778919066284384  0.3928919001545745  0.3372559493993127  1.0000
  O   O19       1.0  0.7778919066918505  0.10710809956920592  0.8372559493694022  1.0000
  O   O20       1.0  0.22210809324354241  0.6071080992929864  0.6627440508152045  1.0000
  O   O21       1.0  0.1585961636868319  0.02625397678080658  0.050249677904700224  1.0000
  O   O22       1.0  0.8414038366819847  0.5262539765045869  0.44975032252952235  1.0000
  O   O23       1.0  0.8414038367453968  0.9737460237432907  0.9497503224996119  1.0000
  O   O24       1.0  0.15859616318999614  0.47374602401951016  0.5502496776849948  1.0000
  O   O25       1.0  0.5309398408854247  0.3331295039068625  0.22326022093655237  1.0000
  O   O26       1.0  0.4690601594846349  0.833129503630643  0.2767397788953461  1.0000
  O   O27       1.0  0.4690601589877992  0.6668704966172346  0.7767397786756408  1.0000
  O   O28       1.0  0.5309398409488367  0.16687049581691787  0.7232602209066419  1.0000
  O   O29       1.0  0.46285663555072354  0.4858428155525021  0.13120277906804667  1.0000
  O   O30       1.0  0.5371433642590882  0.9858428152762826  0.36879722057405695  1.0000
  O   O31       1.0  0.5371433643225003  0.514157184971595  0.8687972205441464  1.0000
  O   O32       1.0  0.46285663561413576  0.01415718417127829  0.6312027790381362  1.0000
