data_image0
_chemical_formula_structural       H46C30N2O4P2S2
_chemical_formula_sum              "H46 C30 N2 O4 P2 S2"
_cell_length_a       10.341918851242779
_cell_length_b       6.8445681335108
_cell_length_c       11.861117112254705
_cell_angle_alpha    90.0
_cell_angle_beta     106.23429053438379
_cell_angle_gamma    90.0

_space_group_name_H-M_alt    "P 1"
_space_group_IT_number       1

loop_
  _space_group_symop_operation_xyz
  'x, y, z'

loop_
  _atom_site_type_symbol
  _atom_site_label
  _atom_site_symmetry_multiplicity
  _atom_site_fract_x
  _atom_site_fract_y
  _atom_site_fract_z
  _atom_site_occupancy
  H   H1        1.0  0.6537694730085021  0.6136311521886573  0.023162562456290187  1.0000
  H   H2        1.0  0.3462305279329468  0.1136311517146172  0.9768374381707116  1.0000
  H   H3        1.0  0.5863695990910652  0.3378993538944732  0.901543607950623  1.0000
  H   H4        1.0  0.41363040057880124  0.8378993543685133  0.0984563918293634  1.0000
  H   H5        1.0  0.6420367647343326  0.17079029636313803  0.016961879444497438  1.0000
  H   H6        1.0  0.357963234935534  0.6707902953761654  0.983038120335489  1.0000
  H   H7        1.0  0.18978535538725974  0.10214371255610451  0.5861591352108904  1.0000
  H   H8        1.0  0.8102146442826068  0.602143711569132  0.4138408645690962  1.0000
  H   H9        1.0  0.9397422134241029  0.033048390429853705  0.23071311476325201  1.0000
  H   H10       1.0  0.06025778624576353  0.5330483909038938  0.7692868850167345  1.0000
  H   H11       1.0  0.45223901845214587  0.8200918378645492  0.3910968722644685  1.0000
  H   H12       1.0  0.5477609815327477  0.3200918388515217  0.6089031283930901  1.0000
  H   H13       1.0  0.4711885514298002  0.07495051111966412  0.37189841797032763  1.0000
  H   H14       1.0  0.5288114482400663  0.5749505115937042  0.6281015818096588  1.0000
  H   H15       1.0  0.6720659077533196  0.25007741271793404  0.4901076961632808  1.0000
  H   H16       1.0  0.32793409191654693  0.7500774117309615  0.5098923036167057  1.0000
  H   H17       1.0  0.766540755296298  0.14942699671474988  0.6250164346216651  1.0000
  H   H18       1.0  0.23345924533012388  0.64942699718879  0.37498356512776443  1.0000
  H   H19       1.0  0.8835771575689793  0.2537348019807332  0.024942059841628523  1.0000
  H   H20       1.0  0.11642284210088728  0.7537348024547733  0.9750579399383579  1.0000
  H   H21       1.0  0.9853893299092134  0.11517377059049712  0.6545512267386023  1.0000
  H   H22       1.0  0.014610669760653089  0.6151737710645372  0.34544877304138416  1.0000
  H   H23       1.0  0.8051571209536891  0.6148622028313919  0.2212592948716107  1.0000
  H   H24       1.0  0.19484287967273278  0.11486220381836446  0.7787407048778188  1.0000
  H   H25       1.0  0.8903674392133791  0.5383771230150448  0.11907238335164502  1.0000
  H   H26       1.0  0.10963256045648734  0.038377122541004734  0.8809276164283415  1.0000
  H   H27       1.0  0.845599238578744  0.36176802125423574  0.21176589679959432  1.0000
  H   H28       1.0  0.15440076109112255  0.8617680217282758  0.7882341029803921  1.0000
  H   H29       1.0  0.1680724429861929  0.06560567902034624  0.371115212609366  1.0000
  H   H30       1.0  0.8319275566836736  0.5656056780333738  0.6288847871706206  1.0000
  H   H31       1.0  0.9266435833055926  0.39854684280873415  0.8478815992255354  1.0000
  H   H32       1.0  0.0733564163642739  0.8985468418217617  0.15211840055445117  1.0000
  H   H33       1.0  0.8406135073131749  0.5732831017911597  0.911295277155407  1.0000
  H   H34       1.0  0.15938649362827392  0.07328310131711957  0.08870472347159455  1.0000
  H   H35       1.0  0.7512567165194765  0.4405495878164804  0.785609049497345  1.0000
  H   H36       1.0  0.24874328346541713  0.9405495882905205  0.21439095116021356  1.0000
  H   H37       1.0  0.6799131825631084  0.8089842590491999  0.5377622406497147  1.0000
  H   H38       1.0  0.3200868171067581  0.3089842585751598  0.4622377591302717  1.0000
  H   H39       1.0  0.5663336848697967  0.9681917355099614  0.5790373594807281  1.0000
  H   H40       1.0  0.4336663148000698  0.4681917350359214  0.4209626402992584  1.0000
  H   H41       1.0  0.7705298789385324  0.9512999334641988  0.9388370624133197  1.0000
  H   H42       1.0  0.2294701207313341  0.4512999344511713  0.06116293736666692  1.0000
  H   H43       1.0  0.8780225275919027  0.03625832268144933  0.8546300186926532  1.0000
  H   H44       1.0  0.12197747207796376  0.5362583216944768  0.14536998108733326  1.0000
  H   H45       1.0  0.6999282079205095  0.06919596543734992  0.8022088246715733  1.0000
  H   H46       1.0  0.300071792064384  0.56919596591139  0.19779117598598517  1.0000
  C   C1        1.0  0.6764462612263499  0.4731910745607146  0.07001778227163839  1.0000
  C   C2        1.0  0.323553739715099  0.973191073573742  0.9299822183553632  1.0000
  C   C3        1.0  0.6696384300752123  0.30607327433022974  0.9801172340620158  1.0000
  C   C4        1.0  0.3303615695946542  0.8060732733432573  0.019882765717970766  1.0000
  C   C5        1.0  0.090891610128874  0.09139775042010148  0.5226448480868172  1.0000
  C   C6        1.0  0.9091083904975479  0.5913977508941416  0.4773551516626123  1.0000
  C   C7        1.0  0.9520620297508585  0.05608277140534571  0.32394040007353275  1.0000
  C   C8        1.0  0.04793796991900798  0.5560827718793858  0.6760595997064538  1.0000
  C   C9        1.0  0.8461844687426235  0.09054419035816032  0.4827473976463035  1.0000
  C   C10       1.0  0.1538155312422699  0.5905441908322004  0.5172526030112551  1.0000
  C   C11       1.0  0.5263279124078342  0.936166823824618  0.3948603849044709  1.0000
  C   C12       1.0  0.4736720885336147  0.4361668248115904  0.6051396157225308  1.0000
  C   C13       1.0  0.8356616495839546  0.06432735293324628  0.36262426182441415  1.0000
  C   C14       1.0  0.16433835040093905  0.5643273519462738  0.6373757388331445  1.0000
  C   C15       1.0  0.7269076445185014  0.11782796872917232  0.530823536867202  1.0000
  C   C16       1.0  0.2730923551513651  0.6178279692032124  0.4691764629127847  1.0000
  C   C17       1.0  0.7988016521216865  0.2663623262180685  0.944622779014148  1.0000
  C   C18       1.0  0.20119834754818  0.766362325231096  0.05537722076583843  1.0000
  C   C19       1.0  0.9754071313979839  0.09907376576178105  0.56110163871069  1.0000
  C   C20       1.0  0.024592868271882642  0.5990737662358212  0.43889836106929647  1.0000
  C   C21       1.0  0.813032797841122  0.49642131303573767  0.16169533520062754  1.0000
  C   C22       1.0  0.18696720182874446  0.9964213135097777  0.8383046645793589  1.0000
  C   C23       1.0  0.07913023090837919  0.07181293113198642  0.40314610983182997  1.0000
  C   C24       1.0  0.9208697687614873  0.5718129316060265  0.5968538899481566  1.0000
  C   C25       1.0  0.8316985861169223  0.42926827415375945  0.8688962899653427  1.0000
  C   C26       1.0  0.16830141355294434  0.9292682746277996  0.1311037098146439  1.0000
  C   C27       1.0  0.6259339590979487  0.9484837411750714  0.5157615761656366  1.0000
  C   C28       1.0  0.37406604152847317  0.4484837407010313  0.48423842358379293  1.0000
  C   C29       1.0  0.7865973320048298  0.06916127077212518  0.8813446925627506  1.0000
  C   C30       1.0  0.21340266798006388  0.5691612712461653  0.11865530809480809  1.0000
  N   N1        1.0  0.5696288836278518  0.45465973444898417  0.12644526270089382  1.0000
  N   N2        1.0  0.43037111604201483  0.9546597349230244  0.8735547370790928  1.0000
  O   O1        1.0  0.5883401097839563  0.885390707169653  0.30353561893869013  1.0000
  O   O2        1.0  0.41165988988591024  0.3853907081566255  0.6964643808412964  1.0000
  O   O3        1.0  0.7067946475451894  0.9352591916878897  0.1436450941700052  1.0000
  O   O4        1.0  0.29320535212467713  0.4352591926748623  0.8563549056099813  1.0000
  P   P1        1.0  0.6804357623731062  0.025888695465306144  0.24865660262403277  1.0000
  P   P2        1.0  0.31956423761178726  0.5258886944783336  0.7513433980335258  1.0000
  S   S1        1.0  0.548621437200419  0.2855158312227379  0.21244432253655077  1.0000
  S   S2        1.0  0.4513785624694475  0.785515831696778  0.7875556772434357  1.0000
