data_image0
_chemical_formula_structural       H72C68N4O12P4S4
_chemical_formula_sum              "H72 C68 N4 O12 P4 S4"
_cell_length_a       8.607238094955703
_cell_length_b       8.88191366792085
_cell_length_c       22.22363136710016
_cell_angle_alpha    90.0
_cell_angle_beta     90.0
_cell_angle_gamma    90.0

_space_group_name_H-M_alt    "P 1"
_space_group_IT_number       1

loop_
  _space_group_symop_operation_xyz
  'x, y, z'

loop_
  _atom_site_type_symbol
  _atom_site_label
  _atom_site_symmetry_multiplicity
  _atom_site_fract_x
  _atom_site_fract_y
  _atom_site_fract_z
  _atom_site_occupancy
  H   H1        1.0  0.8430975023512868  0.9164361706642673  0.07170057240775408  1.0000
  H   H2        1.0  0.6569024973659798  0.08356382956982082  0.5717005722480105  1.0000
  H   H3        1.0  0.34309750205826023  0.5835638291239231  0.9282994277227304  1.0000
  H   H4        1.0  0.15690249823476626  0.4164361699842815  0.4282994274325024  1.0000
  H   H5        1.0  0.7774666816666514  0.11382719398089622  0.0910635699706564  1.0000
  H   H6        1.0  0.722533319212428  0.8861728051273083  0.5910635702608844  1.0000
  H   H7        1.0  0.27746668137362485  0.3861728055732061  0.9089364297098567  1.0000
  H   H8        1.0  0.2225333189194016  0.613827194660882  0.40893642986960005  1.0000
  H   H9        1.0  0.7504017268658166  0.7791692825156686  0.18457731557195303  1.0000
  H   H10       1.0  0.749598274013263  0.2208307177184194  0.6845773154122096  1.0000
  H   H11       1.0  0.25040172657279003  0.7208307172725217  0.8154226845585315  1.0000
  H   H12       1.0  0.24959827372023646  0.27916928183568296  0.3154226842683035  1.0000
  H   H13       1.0  0.7821571432937859  0.1584158124708918  0.2672070289462715  1.0000
  H   H14       1.0  0.7178428575852935  0.8415841877631962  0.7672070292364995  1.0000
  H   H15       1.0  0.2821571430007594  0.34158418708321053  0.7327929707342415  1.0000
  H   H16       1.0  0.2178428572922671  0.6584158120249941  0.232792970893985  1.0000
  H   H17       1.0  0.5324841940512844  0.20113127719898027  0.23062096987387007  1.0000
  H   H18       1.0  0.9675158056659822  0.7988687230351078  0.7306209697141265  1.0000
  H   H19       1.0  0.03248419492007081  0.2988687234810055  0.7693790302566145  1.0000
  H   H20       1.0  0.46751580537295573  0.7011312767530825  0.2693790304163579  1.0000
  H   H21       1.0  0.28187419974147776  0.11052902073859118  0.18826496628241804  1.0000
  H   H22       1.0  0.21812580055154876  0.8894709794954969  0.6882649661226745  1.0000
  H   H23       1.0  0.7818742000345043  0.3894709799413946  0.8117350338480663  1.0000
  H   H24       1.0  0.7181257996827625  0.6105290202926935  0.31173503400780994  1.0000
  H   H25       1.0  0.7492121687419393  0.3974286873277292  0.17627255128967528  1.0000
  H   H26       1.0  0.7507878309753273  0.6025713117804753  0.6762725511299318  1.0000
  H   H27       1.0  0.24921216844891284  0.10257131222637307  0.8237274488408093  1.0000
  H   H28       1.0  0.25078783184411363  0.897428688007715  0.3237274485505812  1.0000
  H   H29       1.0  0.7239096643151555  0.40357295443506475  0.9529774212036654  1.0000
  H   H30       1.0  0.7760903354021113  0.5964270446731398  0.45297742136340885  1.0000
  H   H31       1.0  0.22390966402212886  0.09642704511903755  0.04702257847684763  1.0000
  H   H32       1.0  0.27609033510908476  0.9035729551150504  0.5470225787670756  1.0000
  H   H33       1.0  0.0882027186450112  0.7353537935849934  0.9625220886118018  1.0000
  H   H34       1.0  0.4117972816480153  0.2646462066490947  0.4625220883215738  1.0000
  H   H35       1.0  0.5882027189380378  0.764646206203197  0.03747791151868264  1.0000
  H   H36       1.0  0.911797280779229  0.23535379403089107  0.5374779113589391  1.0000
  H   H37       1.0  0.9160050684110391  0.753324414103011  0.004486323065437421  1.0000
  H   H38       1.0  0.5839949313062275  0.246675586131077  0.5044863233556653  1.0000
  H   H39       1.0  0.4160050681180126  0.7466755856851793  0.9955136766150756  1.0000
  H   H40       1.0  0.08399493217501389  0.25332441454890875  0.4955136767748191  1.0000
  H   H41       1.0  0.9655890493921294  0.5032968881633398  0.9451530307101558  1.0000
  H   H42       1.0  0.5344109503251372  0.49670311094486463  0.44515303086989927  1.0000
  H   H43       1.0  0.4655890502609158  0.9967031116248505  0.05484696942032869  1.0000
  H   H44       1.0  0.03441095003211066  0.0032968886092375996  0.5548469692605852  1.0000
  H   H45       1.0  0.10160880300413033  0.4586120696840238  0.002159499012886218  1.0000
  H   H46       1.0  0.39839119728889616  0.5413879305500643  0.5021594988531427  1.0000
  H   H47       1.0  0.6016088032971568  0.04138793099596202  0.9978405011175983  1.0000
  H   H48       1.0  0.8983911964201098  0.9586120692381261  0.4978405008273703  1.0000
  H   H49       1.0  0.5108414280507514  0.3086218941645794  0.1237631611398931  1.0000
  H   H50       1.0  0.9891585728283282  0.6913781060695087  0.6237631614301211  1.0000
  H   H51       1.0  0.010841427757724908  0.19137810651540638  0.8762368385406198  1.0000
  H   H52       1.0  0.4891585725353016  0.8086218937186817  0.37623683870036345  1.0000
  H   H53       1.0  0.26341712695606206  0.8520054937407928  0.14734697970412214  1.0000
  H   H54       1.0  0.23658287217515156  0.14799450649329524  0.6473469795443787  1.0000
  H   H55       1.0  0.7634171272490886  0.6479945060473975  0.8526530204263624  1.0000
  H   H56       1.0  0.7365828724681781  0.3520054941866905  0.3526530205861058  1.0000
  H   H57       1.0  0.2382443795997436  0.6719323057096375  0.05415679148556027  1.0000
  H   H58       1.0  0.26175561953147003  0.3280676945244506  0.5541567917757882  1.0000
  H   H59       1.0  0.73824437989277  0.8280676952044363  0.9458432081949527  1.0000
  H   H60       1.0  0.7617556198244966  0.17193230502965168  0.44584320835469626  1.0000
  H   H61       1.0  0.1450102374571786  0.8523120121445725  0.05868468696482775  1.0000
  H   H62       1.0  0.3549897628358479  0.14768798808951558  0.5586846872550557  1.0000
  H   H63       1.0  0.6450102377502052  0.6476879876436178  0.9413153127156854  1.0000
  H   H64       1.0  0.8549897619670614  0.35231201146458674  0.44131531287542874  1.0000
  H   H65       1.0  0.4988968938266718  0.6883792163036464  0.14184913473082592  1.0000
  H   H66       1.0  0.0011031064663546831  0.31162078393044174  0.6418491350210539  1.0000
  H   H67       1.0  0.9988968941196984  0.811620783484544  0.858150864949687  1.0000
  H   H68       1.0  0.5011031055975683  0.18837921674954408  0.35815086510943056  1.0000
  H   H69       1.0  0.49942357264628723  0.3122303755345073  0.011723302357583863  1.0000
  H   H70       1.0  0.0005764276467392801  0.6877696246995808  0.5117233021978403  1.0000
  H   H71       1.0  0.9994235729393137  0.18776962401959502  0.9882766977729006  1.0000
  H   H72       1.0  0.5005764267779529  0.8122303750886096  0.4882766979326441  1.0000
  C   C1        1.0  0.8631077063330888  0.4600847140362473  0.03054642280491443  1.0000
  C   C2        1.0  0.6368922933841779  0.5399152861978408  0.5305464226451709  1.0000
  C   C3        1.0  0.36310770604006215  0.03991528664373855  0.96945357732557  1.0000
  C   C4        1.0  0.13689229309115145  0.9600847135903495  0.4694535774853135  1.0000
  C   C5        1.0  0.6573829418424054  0.9961289932320521  0.2106093609404003  1.0000
  C   C6        1.0  0.8426170578748613  0.0038710070020359032  0.7106093612306282  1.0000
  C   C7        1.0  0.1573829427111917  0.5038710076820218  0.7893906387401127  1.0000
  C   C8        1.0  0.3426170575818348  0.4961289925520664  0.28939063889985617  1.0000
  C   C9        1.0  0.8712672749688348  0.027877472046850173  0.09204210267041102  1.0000
  C   C10       1.0  0.6287327247484318  0.9721225270613545  0.5920421025106675  1.0000
  C   C11       1.0  0.37126727467580833  0.47212252750725214  0.9079578974600735  1.0000
  C   C12       1.0  0.12873272445540532  0.5278774727268359  0.40795789761981693  1.0000
  C   C13       1.0  0.6485178170302175  0.8520264970973863  0.1841460021721911  1.0000
  C   C14       1.0  0.851482183848862  0.14797350313670174  0.6841460024624191  1.0000
  C   C15       1.0  0.148517816737191  0.6479735026908041  0.815853997508322  1.0000
  C   C16       1.0  0.3514821835558355  0.352026497543284  0.31585399766806543  1.0000
  C   C17       1.0  0.7912602724434162  0.047989298920958434  0.24542909796796658  1.0000
  C   C18       1.0  0.7087397284356632  0.9520107013131297  0.745429097808223  1.0000
  C   C19       1.0  0.29126027215038974  0.4520107006331439  0.7545709021625179  1.0000
  C   C20       1.0  0.20873972814263678  0.5479892984750607  0.2545709018722899  1.0000
  C   C21       1.0  0.8681396224392997  0.45528341202021644  0.09422650490414618  1.0000
  C   C22       1.0  0.631860377277967  0.5447165882138716  0.5942265047444026  1.0000
  C   C23       1.0  0.36813962214627316  0.04471658753388587  0.9057734952263383  1.0000
  C   C24       1.0  0.13186037814675336  0.9552834127002021  0.4057734949361103  1.0000
  C   C25       1.0  0.5253885462573896  0.08956262464845756  0.2104161188941721  1.0000
  C   C26       1.0  0.974611453459877  0.9104373755856304  0.7104161191844001  1.0000
  C   C27       1.0  0.02538854596436311  0.41043737603152824  0.7895838807863409  1.0000
  C   C28       1.0  0.47461145316685055  0.5895626242025599  0.2895838809460844  1.0000
  C   C29       1.0  0.38453651955320217  0.03847298485169707  0.18720518358484925  1.0000
  C   C30       1.0  0.11546348073982433  0.961527015382391  0.6872051838750772  1.0000
  C   C31       1.0  0.8845365198462287  0.4615270147024052  0.8127948160956637  1.0000
  C   C32       1.0  0.615463479871038  0.5384729855316828  0.3127948162554073  1.0000
  C   C33       1.0  0.7417962916283031  0.4005829445123251  0.12735226404942393  1.0000
  C   C34       1.0  0.7582037080889635  0.599417055721763  0.6273522638896805  1.0000
  C   C35       1.0  0.24179629133527658  0.09941705616766065  0.8726477360810606  1.0000
  C   C36       1.0  0.25820370779593704  0.9005829440664275  0.372647736240804  1.0000
  C   C37       1.0  0.729366003442979  0.4055803788107819  0.002030681631392118  1.0000
  C   C38       1.0  0.7706339974361005  0.5944196214233062  0.5020306814716486  1.0000
  C   C39       1.0  0.22936600314995242  0.09441962074332036  0.9979693184990924  1.0000
  C   C40       1.0  0.2706339971430741  0.9055803783648841  0.4979693182088644  1.0000
  C   C41       1.0  0.026247011818157757  0.6912522975960447  0.00211010699490913  1.0000
  C   C42       1.0  0.4737529884748688  0.3087477026380434  0.5021101072851372  1.0000
  C   C43       1.0  0.5262470121111842  0.8087477021921456  0.9978898926856038  1.0000
  C   C44       1.0  0.9737529887678953  0.19125229804194238  0.4978898928453474  1.0000
  C   C45       1.0  0.9942762098117659  0.5222856304891229  0.992728925600369  1.0000
  C   C46       1.0  0.5057237899055007  0.47771436974496506  0.49272892531014095  1.0000
  C   C47       1.0  0.4942762095187394  0.9777143704249508  0.007271074530115595  1.0000
  C   C48       1.0  0.005723789612474238  0.0222856298091372  0.5072710743703721  1.0000
  C   C49       1.0  0.6086104766951913  0.35060262083463317  0.09777193898278393  1.0000
  C   C50       1.0  0.8913895230220753  0.649397379399455  0.597771939273012  1.0000
  C   C51       1.0  0.10861047756397764  0.1493973798453526  0.9022280606977291  1.0000
  C   C52       1.0  0.39138952272904887  0.8506026203887355  0.40222806085747254  1.0000
  C   C53       1.0  0.3752495811511094  0.893560446175542  0.16306891435235651  1.0000
  C   C54       1.0  0.12475041914191712  0.10643955405854601  0.6630689146425844  1.0000
  C   C55       1.0  0.875249580282323  0.6064395536126483  0.8369310853281564  1.0000
  C   C56       1.0  0.6247504194349436  0.39356044662143974  0.3369310854879  1.0000
  C   C57       1.0  0.12562864278539107  0.7306184289358292  0.056189252304131417  1.0000
  C   C58       1.0  0.3743713575076354  0.26938157129825885  0.5561892525943594  1.0000
  C   C59       1.0  0.6256286430784176  0.7693815708523611  0.9438107473763816  1.0000
  C   C60       1.0  0.874371357800662  0.23061842938172697  0.4438107475361251  1.0000
  C   C61       1.0  0.5077182194554467  0.8018128700936912  0.16054487275566945  1.0000
  C   C62       1.0  0.9922817814236328  0.19818712901451346  0.660544872595926  1.0000
  C   C63       1.0  0.007718219162420173  0.6981871296944993  0.839455127374815  1.0000
  C   C64       1.0  0.49228178113060633  0.30181287053958883  0.339455127084587  1.0000
  C   C65       1.0  0.6025027067671339  0.3529443830694004  0.03510341388918539  1.0000
  C   C66       1.0  0.8974972929501327  0.6470556171646876  0.5351034137294419  1.0000
  C   C67       1.0  0.10250270647410743  0.14705561648470186  0.964896586241299  1.0000
  C   C68       1.0  0.3974972938189191  0.8529443826235027  0.46489658640104253  1.0000
  N   N1        1.0  0.9105219762182417  0.9632205896010112  0.2538529552983731  1.0000
  N   N2        1.0  0.5894780234990249  0.036779409507193495  0.7538529551386297  1.0000
  N   N3        1.0  0.4105219759252152  0.5367794101871792  0.7461470448321114  1.0000
  N   N4        1.0  0.08947802320599842  0.46322059004690874  0.24614704499185483  1.0000
  O   O1        1.0  0.9981437802952069  0.05365042014775035  0.11394756141198673  1.0000
  O   O2        1.0  0.5018562205838726  0.9463495800863376  0.6139475617022147  1.0000
  O   O3        1.0  0.49814378000218046  0.4463495805322354  0.8860524382685262  1.0000
  O   O4        1.0  0.0018562202908460645  0.5536504197018526  0.38605243842826975  1.0000
  O   O5        1.0  0.9850776133367364  0.5329541163067949  0.20195429072155435  1.0000
  O   O6        1.0  0.5149223863805303  0.4670458828014097  0.7019542905618109  1.0000
  O   O7        1.0  0.4850776142055227  0.9670458834813954  0.7980457094089302  1.0000
  O   O8        1.0  0.014922386087503837  0.032954116752692615  0.29804570911870215  1.0000
  O   O9        1.0  0.05338539203060873  0.6930913821234024  0.11352341155797346  1.0000
  O   O10       1.0  0.4466146082624178  0.3069086181106857  0.61352341139823  1.0000
  O   O11       1.0  0.5533853923236353  0.806908617664788  0.886476588572511  1.0000
  O   O12       1.0  0.9466146073936315  0.19309138256930006  0.3864765887322545  1.0000
  P   P1        1.0  0.04098829335356218  0.5174117686595097  0.1320951806438758  1.0000
  P   P2        1.0  0.4590117069394643  0.48258823157457836  0.6320951804841323  1.0000
  P   P3        1.0  0.5409882936465886  0.9825882311286808  0.8679048194866087  1.0000
  P   P4        1.0  0.9590117072324909  0.017411769105407402  0.3679048196463522  1.0000
  S   S1        1.0  0.22741438059522787  0.4030747115827408  0.11705843104701617  1.0000
  S   S2        1.0  0.27258561969779865  0.5969252875254638  0.6170584313372441  1.0000
  S   S3        1.0  0.7274143797264415  0.09692528797136149  0.8829415686334968  1.0000
  S   S4        1.0  0.7725856199908251  0.9030747122627265  0.3829415687932403  1.0000
