data_image0
_chemical_formula_structural       H92C60N4O8P4S4
_chemical_formula_sum              "H92 C60 N4 O8 P4 S4"
_cell_length_a       7.378941998556345
_cell_length_b       10.502392850834706
_cell_length_c       21.092021572973774
_cell_angle_alpha    90.0
_cell_angle_beta     90.0
_cell_angle_gamma    90.0

_space_group_name_H-M_alt    "P 1"
_space_group_IT_number       1

loop_
  _space_group_symop_operation_xyz
  'x, y, z'

loop_
  _atom_site_type_symbol
  _atom_site_label
  _atom_site_symmetry_multiplicity
  _atom_site_fract_x
  _atom_site_fract_y
  _atom_site_fract_z
  _atom_site_occupancy
  H   H1        1.0  0.5518466632203745  0.36994526725318644  0.9939889307179435  1.0000
  H   H2        1.0  0.9481533370730935  0.6300547326673358  0.4939889310254953  1.0000
  H   H3        1.0  0.05184666312255181  0.1300547331831567  0.006011069141065951  1.0000
  H   H4        1.0  0.4481533369752708  0.8699452676895296  0.5060110688335142  1.0000
  H   H5        1.0  0.8218099927044298  0.3805970940881642  0.0493520436814743  1.0000
  H   H6        1.0  0.6781900075890382  0.619402905832358  0.5493520438480355  1.0000
  H   H7        1.0  0.3218099926066071  0.11940290539601493  0.9506479561775353  1.0000
  H   H8        1.0  0.17819000749121555  0.8805970945245073  0.4506479560109739  1.0000
  H   H9        1.0  0.9566694807170324  0.3984401278292899  0.9829995108940512  1.0000
  H   H10       1.0  0.5433305195764354  0.6015598720912325  0.4829995107274901  1.0000
  H   H11       1.0  0.4566694806192098  0.10155987260705328  0.017000489439071075  1.0000
  H   H12       1.0  0.043330519478612835  0.8984401282656329  0.5170004891315194  1.0000
  H   H13       1.0  0.707285460574304  0.5367861238928937  0.8885087602988724  1.0000
  H   H14       1.0  0.7927145397191638  0.46321387602762853  0.3885087601323111  1.0000
  H   H15       1.0  0.20728546047648141  0.9632138755118077  0.11149124003425008  1.0000
  H   H16       1.0  0.2927145396213412  0.03678612440871457  0.6114912397266983  1.0000
  H   H17       1.0  0.5423263823977654  0.5803095615029876  0.9469859496821991  1.0000
  H   H18       1.0  0.9576736178957024  0.4196904384175347  0.4469859495156378  1.0000
  H   H19       1.0  0.04232638229994282  0.9196904388538778  0.05301405017681044  1.0000
  H   H20       1.0  0.4576736177978798  0.08030956106664446  0.5530140503433717  1.0000
  H   H21       1.0  0.48860642090768286  0.4634994614216049  0.8894200555928535  1.0000
  H   H22       1.0  0.01139357919013978  0.5365005384989174  0.38942005542629227  1.0000
  H   H23       1.0  0.9886064210055056  0.036500538062574264  0.11057994474026892  1.0000
  H   H24       1.0  0.5113935792879624  0.9634994618579481  0.6105799444327172  1.0000
  H   H25       1.0  0.8495617056248002  0.6301934505786435  0.9748278205037451  1.0000
  H   H26       1.0  0.6504382933134599  0.36980654934187884  0.47482782033718396  1.0000
  H   H27       1.0  0.34956170688218535  0.8698065497782219  0.025172179829377236  1.0000
  H   H28       1.0  0.1504382932156373  0.13019345014230035  0.5251721795218255  1.0000
  H   H29       1.0  0.37677504316254734  0.16555333576783995  0.22734028662971545  1.0000
  H   H30       1.0  0.12322495693527531  0.8344466641526823  0.7273402867962767  1.0000
  H   H31       1.0  0.8767750432603699  0.33444666466850315  0.772659713229294  1.0000
  H   H32       1.0  0.623224957033098  0.6655533352520191  0.2726597130627328  1.0000
  H   H33       1.0  0.4349212218537395  0.13733825048120943  0.3072977143312378  1.0000
  H   H34       1.0  0.06507877824408315  0.8626617494393128  0.8072977140236861  1.0000
  H   H35       1.0  0.9349212219515621  0.3626617499551337  0.6927022860018845  1.0000
  H   H36       1.0  0.5650787783419058  0.6373382499653886  0.19270228583532342  1.0000
  H   H37       1.0  0.9435045730623842  0.288625748727261  0.12939758242505914  1.0000
  H   H38       1.0  0.5564954272310838  0.7113742511932613  0.6293975821175075  1.0000
  H   H39       1.0  0.4435045729645616  0.21137425170908214  0.8706024179080633  1.0000
  H   H40       1.0  0.0564954271332611  0.7886257482114402  0.37060241774150204  1.0000
  H   H41       1.0  0.728912018965903  0.9595830553223907  0.18871682717697877  1.0000
  H   H42       1.0  0.771087981327565  0.04041694555029559  0.688716826869427  1.0000
  H   H43       1.0  0.22891201886808027  0.5404169450344748  0.8112831731561436  1.0000
  H   H44       1.0  0.27108798122974237  0.4595830548860475  0.3112831729895824  1.0000
  H   H45       1.0  0.5571978490689318  0.8470193541934576  0.16948336496016556  1.0000
  H   H46       1.0  0.9428021512245361  0.15298064572706457  0.6694833646526138  1.0000
  H   H47       1.0  0.05719784897110913  0.6529806452112437  0.8305166353729567  1.0000
  H   H48       1.0  0.4428021511267135  0.3470193547092785  0.3305166352063956  1.0000
  H   H49       1.0  0.12456874036682147  0.3567696089089071  0.22185826540192768  1.0000
  H   H50       1.0  0.37543125973100117  0.6432303910116152  0.7218582650943759  1.0000
  H   H51       1.0  0.6245687404646442  0.14323039057527207  0.7781417344570818  1.0000
  H   H52       1.0  0.8754312598288239  0.8567696093452503  0.27814173476463355  1.0000
  H   H53       1.0  0.7386654023119273  0.5795673725456034  0.11267883459048246  1.0000
  H   H54       1.0  0.7613345979815406  0.4204326273749189  0.6126788347570437  1.0000
  H   H55       1.0  0.23866540221410476  0.9204326268590981  0.8873211652685269  1.0000
  H   H56       1.0  0.2613345978837179  0.07956737306142425  0.38732116557607876  1.0000
  H   H57       1.0  0.5820326858295206  0.6142857776918192  0.051185772130223794  1.0000
  H   H58       1.0  0.9179673144639474  0.38571422222870305  0.551185772296785  1.0000
  H   H59       1.0  0.08203268573169797  0.8857142217128823  0.9488142277287858  1.0000
  H   H60       1.0  0.4179673143661247  0.11428577820764009  0.4488142280363374  1.0000
  H   H61       1.0  0.7428113679538834  0.7309961719237947  0.07450752620192921  1.0000
  H   H62       1.0  0.7571886323395847  0.2690038279967275  0.5745075258943775  1.0000
  H   H63       1.0  0.24281136785606064  0.7690038284330706  0.9254924741311932  1.0000
  H   H64       1.0  0.25718863224176197  0.23099617148745163  0.42549247396463197  1.0000
  H   H65       1.0  0.7245358658525816  0.1936381697851237  0.3470638968708351  1.0000
  H   H66       1.0  0.7754641330856785  0.8063618301353985  0.8470638970373963  1.0000
  H   H67       1.0  0.22453586710996676  0.30636182969905545  0.6529361029881744  1.0000
  H   H68       1.0  0.2754641329878558  0.6936381702214668  0.15293610329572607  1.0000
  H   H69       1.0  0.5535894211933354  0.9280944731776353  0.2843774926574914  1.0000
  H   H70       1.0  0.9464105791001326  0.07190552674288697  0.7843774928240526  1.0000
  H   H71       1.0  0.0535894210955127  0.5719055262270661  0.7156225072015181  1.0000
  H   H72       1.0  0.44641057900230996  0.4280944736934561  0.21562250703495686  1.0000
  H   H73       1.0  0.34454471528538966  0.9421458957530412  0.24406015242256457  1.0000
  H   H74       1.0  0.15545528481243298  0.05785410416748111  0.7440601525891258  1.0000
  H   H75       1.0  0.8445447153832123  0.5578541036516603  0.7559398474364449  1.0000
  H   H76       1.0  0.6554552849102556  0.442145896268862  0.25593984726988367  1.0000
  H   H77       1.0  0.019671638566667017  0.3014695531740999  0.33162617418154944  1.0000
  H   H78       1.0  0.4803283615311556  0.6985304467464224  0.8316261738739977  1.0000
  H   H79       1.0  0.5196716386644896  0.19853044726224323  0.6683738261515729  1.0000
  H   H80       1.0  0.9803283616289783  0.801469552658279  0.16837382598501172  1.0000
  H   H81       1.0  0.07295098810985587  0.5412873057351101  0.08922425256815567  1.0000
  H   H82       1.0  0.42704901198796674  0.4587126951375762  0.5892242527347169  1.0000
  H   H83       1.0  0.5729509882076785  0.9587126946217552  0.9107757472908538  1.0000
  H   H84       1.0  0.9270490120857895  0.04128730529876696  0.4107757471242926  1.0000
  H   H85       1.0  0.08301880406701266  0.6953679436414886  0.053823001558780524  1.0000
  H   H86       1.0  0.41698119603081  0.3046320562790338  0.5538230017253417  1.0000
  H   H87       1.0  0.5830188041648353  0.8046320567153769  0.946176998300229  1.0000
  H   H88       1.0  0.9169811961286326  0.19536794415730938  0.4461769981336677  1.0000
  H   H89       1.0  0.15499517413522962  0.5579329828187002  0.010646628594754435  1.0000
  H   H90       1.0  0.345004825962593  0.442067018053986  0.5106466282872026  1.0000
  H   H91       1.0  0.6549951742330523  0.9420670175381651  0.989353371738368  1.0000
  H   H92       1.0  0.8450048260604157  0.05793298238235708  0.4893533715718068  1.0000
  C   C1        1.0  0.7249016445781127  0.21091092777242199  0.18579489056759427  1.0000
  C   C2        1.0  0.7750983557153552  0.7890890721481003  0.6857948907341554  1.0000
  C   C3        1.0  0.22490164448029007  0.28908907171175713  0.8142051092914152  1.0000
  C   C4        1.0  0.2750983556175326  0.7109109282087651  0.3142051095989669  1.0000
  C   C5        1.0  0.668369812496818  0.39554398021493137  0.96315136696192  1.0000
  C   C6        1.0  0.83163018779665  0.6044560197055908  0.4631513667953589  1.0000
  C   C7        1.0  0.1683698123989954  0.10445601926924776  0.03684863289708937  1.0000
  C   C8        1.0  0.33163018769882724  0.8955439806512745  0.5368486330636506  1.0000
  C   C9        1.0  0.8316316568419415  0.4341878688757659  0.004768382663180631  1.0000
  C   C10       1.0  0.6683683434515265  0.5658121310447565  0.5047683823556289  1.0000
  C   C11       1.0  0.3316316567441189  0.06581213060841332  0.9952316176699418  1.0000
  C   C12       1.0  0.1683683433537038  0.9341878693121091  0.4952316175033805  1.0000
  C   C13       1.0  0.5979085132886495  0.5014372614695561  0.9188916715709305  1.0000
  C   C14       1.0  0.9020914870048184  0.4985627384509661  0.4188916718784823  1.0000
  C   C15       1.0  0.09790851319082683  0.9985627388873093  0.08110832828807893  1.0000
  C   C16       1.0  0.4020914869069958  0.0014372619853770094  0.5811083284546401  1.0000
  C   C17       1.0  0.8610114717317203  0.575849921622322  0.019381988994541046  1.0000
  C   C18       1.0  0.6389885285617476  0.4241500792503643  0.5193819891611022  1.0000
  C   C19       1.0  0.3610114716338977  0.9241500787345435  0.9806180108644684  1.0000
  C   C20       1.0  0.13898852846392498  0.07584992118597883  0.4806180111720202  1.0000
  C   C21       1.0  0.479574868686099  0.1217201049471692  0.2582546230172478  1.0000
  C   C22       1.0  0.02042513141172364  0.8782798949733531  0.758254623183809  1.0000
  C   C23       1.0  0.9795748687839217  0.3782798954891739  0.7417453768417617  1.0000
  C   C24       1.0  0.5204251315095463  0.6217201044313484  0.2417453766752005  1.0000
  C   C25       1.0  0.8914473933101714  0.2731689054815717  0.17714196892285938  1.0000
  C   C26       1.0  0.6085526056280888  0.7268310944389507  0.6771419686153076  1.0000
  C   C27       1.0  0.3914473945675566  0.22683109495477147  0.822858031410263  1.0000
  C   C28       1.0  0.10855260553026608  0.7731689049657509  0.3228580312437018  1.0000
  C   C29       1.0  0.6600677578103894  0.18485828873233376  0.2476570020530054  1.0000
  C   C30       1.0  0.8399322411278707  0.8151417111881886  0.7476570022195667  1.0000
  C   C31       1.0  0.16006775906777457  0.31514171075184544  0.7523429978060041  1.0000
  C   C32       1.0  0.3399322410300481  0.6848582891686769  0.2523429976394429  1.0000
  C   C33       1.0  0.5816796203086764  0.9455794294736098  0.18421541655251514  1.0000
  C   C34       1.0  0.9183203799847915  0.054420570446912474  0.6842154167190764  1.0000
  C   C35       1.0  0.08167962021085369  0.5544205708832556  0.8157845833064943  1.0000
  C   C36       1.0  0.41832037988696896  0.4455794290372667  0.31578458313993313  1.0000
  C   C37       1.0  0.9959127624851578  0.3080823357072233  0.22943058081263498  1.0000
  C   C38       1.0  0.5040872364531024  0.6919176642132989  0.7294305805050832  1.0000
  C   C39       1.0  0.4959127623873351  0.19191766377695585  0.7705694195204875  1.0000
  C   C40       1.0  0.004087237710487569  0.8080823361435665  0.2705694193539262  1.0000
  C   C41       1.0  0.7227219513371105  0.6283549419383515  0.06677376443634227  1.0000
  C   C42       1.0  0.7772780476011495  0.37164505798217073  0.5667737646029034  1.0000
  C   C43       1.0  0.22272195123928792  0.87164505746635  0.9332262354226672  1.0000
  C   C44       1.0  0.27727804750332685  0.12835494245417237  0.433226235256106  1.0000
  C   C45       1.0  0.7706993822573242  0.21641631314708973  0.2991445565409789  1.0000
  C   C46       1.0  0.7293006180361438  0.7835836867734325  0.79914455670754  1.0000
  C   C47       1.0  0.27069938215950157  0.28358368633708947  0.7008554433180306  1.0000
  C   C48       1.0  0.22930061793832113  0.7164163135834328  0.2008554436255823  1.0000
  C   C49       1.0  0.4840894007160997  0.97796162130649  0.24540508040406964  1.0000
  C   C50       1.0  0.01591059938172294  0.022038378614032177  0.7454050805706308  1.0000
  C   C51       1.0  0.9840894008139223  0.5220383790503753  0.7545949194549398  1.0000
  C   C52       1.0  0.5159105994795455  0.477961620870147  0.2545949192883787  1.0000
  C   C53       1.0  0.9371348292685997  0.277524625235129  0.29044626845298066  1.0000
  C   C54       1.0  0.5628651710248683  0.7224753746853932  0.7904462686195418  1.0000
  C   C55       1.0  0.43713482917077706  0.22247537424905015  0.7095537314060288  1.0000
  C   C56       1.0  0.06286517092704559  0.7775246256714721  0.20955373123946766  1.0000
  C   C57       1.0  0.05434522321471774  0.5942594786390959  0.04455924135808149  1.0000
  C   C58       1.0  0.4456547768831049  0.40574052128142646  0.5445592415246426  1.0000
  C   C59       1.0  0.5543452233125403  0.9057405217177696  0.9554407585009279  1.0000
  C   C60       1.0  0.9456547769809275  0.09425947820275273  0.45544075833436676  1.0000
  N   N1        1.0  0.6940242979280677  0.2807486447972337  0.9258951444001675  1.0000
  N   N2        1.0  0.8059757023654003  0.7192513551232885  0.42589514423360625  1.0000
  N   N3        1.0  0.19402429783024508  0.21925135468694543  0.07410485545884206  1.0000
  N   N4        1.0  0.3059757022675776  0.7807486452335769  0.5741048556254033  1.0000
  O   O1        1.0  0.7377821889730403  0.15012270559605773  0.05955182369097617  1.0000
  O   O2        1.0  0.7622178113204278  0.8498772943244646  0.5595518238575373  1.0000
  O   O3        1.0  0.23778218887521754  0.3498772948402854  0.9404481761680333  1.0000
  O   O4        1.0  0.2622178112226051  0.650122705080237  0.4404481764755851  1.0000
  O   O5        1.0  0.5142850669841896  0.024055264699027225  0.1325908775659243  1.0000
  O   O6        1.0  0.9857149319540705  0.975944735221495  0.6325908777324855  1.0000
  O   O7        1.0  0.014285066886367005  0.4759447357373159  0.8674091222930851  1.0000
  O   O8        1.0  0.48571493321145565  0.5240552651353703  0.36740912212652393  1.0000
  P   P1        1.0  0.6117069209763532  0.15652821631685057  0.11440867683788238  1.0000
  P   P2        1.0  0.8882930779619068  0.8434717845558357  0.6144086770044436  1.0000
  P   P3        1.0  0.1117069208785306  0.34347178411949253  0.885591323021127  1.0000
  P   P4        1.0  0.3882930778640842  0.6565282158010298  0.38559132332867885  1.0000
  S   S1        1.0  0.37613382251046396  0.2816206698804768  0.10035877939326208  1.0000
  S   S2        1.0  0.12386617758735874  0.7183793300400456  0.6003587795598233  1.0000
  S   S3        1.0  0.8761338226082865  0.21837933055586636  0.8996412204657473  1.0000
  S   S4        1.0  0.6238661776851814  0.7816206693646559  0.39964122029918614  1.0000
