data_image0
_chemical_formula_structural       H44C46N2O10Cl2
_chemical_formula_sum              "H44 C46 N2 O10 Cl2"
_cell_length_a       8.522205715648255
_cell_length_b       10.824154622025073
_cell_length_c       12.416583679661327
_cell_angle_alpha    78.94009503109481
_cell_angle_beta     77.45015237187151
_cell_angle_gamma    69.95701908595939

_space_group_name_H-M_alt    "P 1"
_space_group_IT_number       1

loop_
  _space_group_symop_operation_xyz
  'x, y, z'

loop_
  _atom_site_type_symbol
  _atom_site_label
  _atom_site_symmetry_multiplicity
  _atom_site_fract_x
  _atom_site_fract_y
  _atom_site_fract_z
  _atom_site_occupancy
  H   H1        1.0  0.42431023179559335  0.6949072620488601  0.1174428439404627  1.0000
  H   H2        1.0  0.3176365078394266  0.9384739018835618  0.12595500529177903  1.0000
  H   H3        1.0  0.8603879559094801  0.7416770292767295  0.8827615834225164  1.0000
  H   H4        1.0  0.754324524098045  0.9835791058079707  0.8927266886215195  1.0000
  H   H5        1.0  0.3898691455941517  0.20812816767313602  0.16940033436226096  1.0000
  H   H6        1.0  0.5711515402364034  0.1661706789421015  0.97576695705806  1.0000
  H   H7        1.0  0.20518218271546385  0.15790391264697434  0.03794431670347744  1.0000
  H   H8        1.0  0.30895300061622344  0.20743947468981458  0.9043476968098132  1.0000
  H   H9        1.0  0.26452113214196454  0.30539219082349045  0.013644989592873882  1.0000
  H   H10       1.0  0.6077248175070412  0.8512853807760212  0.4862689677402578  1.0000
  H   H11       1.0  0.8539077820915247  0.9012496617062867  0.6661471359067758  1.0000
  H   H12       1.0  0.15970376124969216  0.768387168834725  0.6516379404782113  1.0000
  H   H13       1.0  0.44933248151231436  0.7590084876896581  0.6023623235439546  1.0000
  H   H14       1.0  0.9850203467324503  0.261178275331933  0.6099650620288672  1.0000
  H   H15       1.0  0.2925679281957875  0.12750181494901533  0.5949432494198965  1.0000
  H   H16       1.0  0.6281772147352125  0.7851969487102752  0.7226835230281834  1.0000
  H   H17       1.0  0.4225873214362002  0.799386928244142  0.7997022042296477  1.0000
  H   H18       1.0  0.4834970461906571  0.9441082410231825  0.7491182411633768  1.0000
  H   H19       1.0  0.9087078157801818  0.432972092080545  0.4003444579053814  1.0000
  H   H20       1.0  0.9753981953154555  0.49187707049213264  0.20397899359896418  1.0000
  H   H21       1.0  0.2035057894156814  0.7871782415145625  0.9051378364470963  1.0000
  H   H22       1.0  0.8522462890600625  0.897630628708454  0.20226690631157096  1.0000
  H   H23       1.0  0.32066108661129655  0.4980003507881589  0.48166541347696523  1.0000
  H   H24       1.0  0.5320466120432352  0.4889503008032383  0.5944652646065706  1.0000
  H   H25       1.0  0.9346384217195077  0.5412797098477676  0.7731853580711427  1.0000
  H   H26       1.0  0.7738947672504175  0.13223090386169836  0.11901747194470721  1.0000
  H   H27       1.0  0.147300402018652  0.5329659599222591  0.8863693257832586  1.0000
  H   H28       1.0  0.13092413865009736  0.02468562287832945  0.8225033613825813  1.0000
  H   H29       1.0  0.5343802375439345  0.39238181966620295  0.8551391979163472  1.0000
  H   H30       1.0  0.42678765467805563  0.5546515007055174  0.8885737568591716  1.0000
  H   H31       1.0  0.5914675539361378  0.5255138567899015  0.7695873705773313  1.0000
  H   H32       1.0  0.7717653318770513  0.2921658698555676  0.948981189653194  1.0000
  H   H33       1.0  0.9103690144977783  0.24579390098367143  0.8237459849802881  1.0000
  H   H34       1.0  0.9853618366789924  0.28876824099550025  0.9285591658114333  1.0000
  H   H35       1.0  0.2355580096427462  0.6672860606011539  0.35709002155780317  1.0000
  H   H36       1.0  0.952738988315852  0.8392425267377395  0.3706423232706897  1.0000
  H   H37       1.0  0.7409750255174846  0.42774298273906197  0.21988797807280588  1.0000
  H   H38       1.0  0.21170848081233667  0.1315146777321467  0.33809051817569835  1.0000
  H   H39       1.0  0.7298291832564997  0.00031098289818006956  0.43949509427229955  1.0000
  H   H40       1.0  0.48303545340601794  0.9432082042676554  0.333422873751239  1.0000
  H   H41       1.0  0.019609795433424653  0.25526976582056393  0.2513547334165808  1.0000
  H   H42       1.0  0.4685648776043443  0.18000027528612947  0.3934400999069163  1.0000
  H   H43       1.0  0.4865588900044936  0.721828748730494  0.34606131136196644  1.0000
  H   H44       1.0  0.48361777318198473  0.38407576139396  0.28335825382464447  1.0000
  C   C1        1.0  0.6496311492806598  0.7055198284757305  0.001240403865629339  1.0000
  C   C2        1.0  0.4955416112489886  0.7592747464912352  0.06871123493733558  1.0000
  C   C3        1.0  0.43714918723724955  0.8955916800383951  0.07290617935454212  1.0000
  C   C4        1.0  0.7411125810214623  0.7854952268394181  0.9354685989688832  1.0000
  C   C5        1.0  0.679970262472468  0.9216204807281889  0.9414522383646945  1.0000
  C   C6        1.0  0.5300653065956629  0.9780340349033733  0.011778292244593997  1.0000
  C   C7        1.0  0.47472650925733073  0.12324122248729584  0.027926531504012496  1.0000
  C   C8        1.0  0.30283186591582356  0.2030882262496961  0.9942634876359672  1.0000
  C   C9        1.0  0.9507104907242582  0.9499137775746875  0.6513964455869028  1.0000
  C   C10       1.0  0.24664509186845665  0.9390071089459965  0.6246100802487444  1.0000
  C   C11       1.0  0.12244338824374557  0.8763811744296893  0.6431978666291182  1.0000
  C   C12       1.0  0.9037257610627657  0.08794844602647588  0.640209595818343  1.0000
  C   C13       1.0  0.4322518749660302  0.8592631801464679  0.6202512920606796  1.0000
  C   C14       1.0  0.02546788065918573  0.1532463461579744  0.6185766719626428  1.0000
  C   C15       1.0  0.19611576793493607  0.07806779599546897  0.6110502030487119  1.0000
  C   C16       1.0  0.49446022795214284  0.8463491501372491  0.7297234090100941  1.0000
  C   C17       1.0  0.9330109889862844  0.5284783084427385  0.3743117291213025  1.0000
  C   C18       1.0  0.21712179863624087  0.43853608709094716  0.2560289752892373  1.0000
  C   C19       1.0  0.7614574447217017  0.6399436599217716  0.37807528872359325  1.0000
  C   C20       1.0  0.033172913609647185  0.529519918039418  0.2561427868552399  1.0000
  C   C21       1.0  0.9851361872171972  0.5215469614831952  0.5564523283264093  1.0000
  C   C22       1.0  0.11334982923951048  0.520723387863335  0.6201452282823855  1.0000
  C   C23       1.0  0.1137507934181891  0.8647185745180788  0.9522864003631758  1.0000
  C   C24       1.0  0.9176134039244422  0.9262177730554322  0.1207229982685301  1.0000
  C   C25       1.0  0.282245052728762  0.5063429168875813  0.5702078779666122  1.0000
  C   C26       1.0  0.07668093844072842  0.686098900184757  0.10228051770254162  1.0000
  C   C27       1.0  0.0373694568237697  0.8282764661962786  0.05991109452797602  1.0000
  C   C28       1.0  0.40109476318537385  0.5004481846878576  0.6338807720632159  1.0000
  C   C29       1.0  0.06577872920635786  0.5297856707561526  0.7345765972661635  1.0000
  C   C30       1.0  0.8751875986584626  0.05840761331457476  0.07382862010106243  1.0000
  C   C31       1.0  0.18492780161462744  0.5241433495608301  0.7977051211177236  1.0000
  C   C32       1.0  0.9513399244399496  0.09586485683557502  0.9661967466508494  1.0000
  C   C33       1.0  0.35474018997029  0.5080700229162369  0.7487477657662661  1.0000
  C   C34       1.0  0.07238888881789982  0.9970378396325589  0.9066599310041031  1.0000
  C   C35       1.0  0.483382191499795  0.4963163395944069  0.8187131616269279  1.0000
  C   C36       1.0  0.9016834485123901  0.23766792593757105  0.9141450043307505  1.0000
  C   C37       1.0  0.05853589884732275  0.0019348417310398407  0.3544658846585746  1.0000
  C   C38       1.0  0.22080916108235885  0.7708358300867653  0.3585647255645611  1.0000
  C   C39       1.0  0.06518879934029627  0.868760700392951  0.36340611513232757  1.0000
  C   C40       1.0  0.7494878209807077  0.33017875771106986  0.26604850679983827  1.0000
  C   C41       1.0  0.898250213297814  0.11026752621465881  0.34431876907025066  1.0000
  C   C42       1.0  0.2097933608042109  0.030259096579301273  0.3456933423724787  1.0000
  C   C43       1.0  0.7408200594201007  0.09092540942120199  0.38757928960813115  1.0000
  C   C44       1.0  0.3614557385552815  0.9276285814432809  0.34307594320032714  1.0000
  C   C45       1.0  0.9006760445423587  0.23396690135882356  0.28437699526895954  1.0000
  C   C46       1.0  0.5939838400887535  0.19045375938973633  0.3651586393608528  1.0000
  N   N1        1.0  0.3638116539163558  0.8018609705909777  0.3490476624659465  1.0000
  N   N2        1.0  0.6012034539210872  0.3061331419869601  0.30444097964597805  1.0000
  O   O1        1.0  0.47576832413721937  0.12712161840251252  0.1429399857922715  1.0000
  O   O2        1.0  0.5309034641400271  0.9213763212878774  0.532349321427292  1.0000
  O   O3        1.0  0.03876547337832418  0.5412604919896804  0.4447668646203505  1.0000
  O   O4        1.0  0.7503158899092035  0.7479681800600879  0.4075458891271517  1.0000
  O   O5        1.0  0.019890907686277208  0.6652402859066857  0.21339139820962527  1.0000
  O   O6        1.0  0.32898737501845454  0.4909498504903675  0.25788865604401845  1.0000
  O   O7        1.0  0.6478091942780314  0.6109322108175019  0.34585978063948986  1.0000
  O   O8        1.0  0.14893326329625603  0.5943965933186364  0.04623997576381193  1.0000
  O   O9        1.0  0.23942317743466673  0.3164030000015867  0.2592876749790254  1.0000
  O   O10       1.0  0.8489062305928783  0.5029183751725825  0.5965992283757887  1.0000
  Cl  Cl1       1.0  0.7308093329764146  0.5348861842540116  0.9993714588044952  1.0000
  Cl  Cl2       1.0  0.6905534767041109  0.18094350105513676  0.6546881135369512  1.0000
