data_image0
_chemical_formula_structural       H40C48N16O8
_chemical_formula_sum              "H40 C48 N16 O8"
_cell_length_a       22.588111492921133
_cell_length_b       3.74348680959175
_cell_length_c       12.744521182251505
_cell_angle_alpha    90.0
_cell_angle_beta     90.0
_cell_angle_gamma    90.0

_space_group_name_H-M_alt    "P 1"
_space_group_IT_number       1

loop_
  _space_group_symop_operation_xyz
  'x, y, z'

loop_
  _atom_site_type_symbol
  _atom_site_label
  _atom_site_symmetry_multiplicity
  _atom_site_fract_x
  _atom_site_fract_y
  _atom_site_fract_z
  _atom_site_occupancy
  H   H1        1.0  0.49199907940434934  0.29399283768813994  0.5290027034824188  1.0000
  H   H2        1.0  0.508000920466329  0.7060071624209162  0.029002703570751198  1.0000
  H   H3        1.0  0.008000920752345209  0.7939928390783211  0.029002703570751198  1.0000
  H   H4        1.0  0.9919990795610439  0.206007161030735  0.5290027034824188  1.0000
  H   H5        1.0  0.5843444359718384  0.5980302038900855  0.5803279593037947  1.0000
  H   H6        1.0  0.41565556389883995  0.4019697962189706  0.08032795939212689  1.0000
  H   H7        1.0  0.9156555640555345  0.09803020249990432  0.08032795939212689  1.0000
  H   H8        1.0  0.08434443625785462  0.9019697976091519  0.5803279593037947  1.0000
  H   H9        1.0  0.6640644949313635  0.7199012864409959  0.45151752252675886  1.0000
  H   H10       1.0  0.3359355049393148  0.2800987136680603  0.9515175224384267  1.0000
  H   H11       1.0  0.8359355050960093  0.21990128505081463  0.9515175224384267  1.0000
  H   H12       1.0  0.16406449521737979  0.7800987150582416  0.45151752252675886  1.0000
  H   H13       1.0  0.6516173250965541  0.5554270245249651  0.26190587957501577  1.0000
  H   H14       1.0  0.3483826747741242  0.4445729755840911  0.7619058794866834  1.0000
  H   H15       1.0  0.8483826749308189  0.05542702580609015  0.7619058794866834  1.0000
  H   H16       1.0  0.15161732493985958  0.944572974302966  0.26190587957501577  1.0000
  H   H17       1.0  0.4344324479306422  0.991171963126176  0.33008008459811145  1.0000
  H   H18       1.0  0.5655675519400362  0.008828036982880153  0.8300800845097791  1.0000
  H   H19       1.0  0.06556755178334162  0.4911719644073011  0.8300800845097791  1.0000
  H   H20       1.0  0.9344324480873367  0.508828035701755  0.33008008459811145  1.0000
  H   H21       1.0  0.2482373266024138  0.4268667932542464  0.4373362631906533  1.0000
  H   H22       1.0  0.7517626737109754  0.5731332068548097  0.9373362631023209  1.0000
  H   H23       1.0  0.2517626735542808  0.9268667919731213  0.9373362631023209  1.0000
  H   H24       1.0  0.7482373263163976  0.07313320813593481  0.4373362631906533  1.0000
  H   H25       1.0  0.21052120720628867  0.41389237328953526  0.25023381846948267  1.0000
  H   H26       1.0  0.7894787926643896  0.5861076268195208  0.7502338183811503  1.0000
  H   H27       1.0  0.28947879250769515  0.9138923720084102  0.7502338183811503  1.0000
  H   H28       1.0  0.7105212073629832  0.08610762810064596  0.25023381846948267  1.0000
  H   H29       1.0  0.2737384358996881  0.6756772812766624  0.10990431809636254  1.0000
  H   H30       1.0  0.7262615639709902  0.32432271883239383  0.6099043187926811  1.0000
  H   H31       1.0  0.22626156425700641  0.17567727988648107  0.6099043187926811  1.0000
  H   H32       1.0  0.7737384360563828  0.8243227202225751  0.10990431809636254  1.0000
  H   H33       1.0  0.37376154676081746  0.9237792320088696  0.15910779942238426  1.0000
  H   H34       1.0  0.6262384531098608  0.07622076810018656  0.659107799334052  1.0000
  H   H35       1.0  0.12623845295316632  0.42377923061868833  0.659107799334052  1.0000
  H   H36       1.0  0.8737615469175121  0.5762207668190614  0.15910779942238426  1.0000
  H   H37       1.0  0.42377955647154836  0.8143374786813937  0.5891973117403081  1.0000
  H   H38       1.0  0.57622044339913  0.18566252142766246  0.08919731182864037  1.0000
  H   H39       1.0  0.07622044368514626  0.31433747996251876  0.08919731182864037  1.0000
  H   H40       1.0  0.923779556628243  0.6856625201465374  0.5891973117403081  1.0000
  C   C1        1.0  0.5201971206704202  0.25506739266543094  0.36570146915292906  1.0000
  C   C2        1.0  0.47980287920025816  0.7449326074436253  0.8657014690645968  1.0000
  C   C3        1.0  0.9798028793569528  0.7550673940556121  0.8657014690645968  1.0000
  C   C4        1.0  0.020197120513725672  0.244932606053444  0.36570146915292906  1.0000
  C   C5        1.0  0.526223321667465  0.3479520741631921  0.4715111257666245  1.0000
  C   C6        1.0  0.47377667820321334  0.652047925945864  0.9715111256782921  1.0000
  C   C7        1.0  0.9737766783599079  0.8479520755533734  0.9715111256782921  1.0000
  C   C8        1.0  0.02622332151077045  0.15204792455568278  0.4715111257666245  1.0000
  C   C9        1.0  0.5787456075775465  0.5135632039824557  0.4992687052740175  1.0000
  C   C10       1.0  0.42125439229313194  0.4864367961266005  0.9992687051856852  1.0000
  C   C11       1.0  0.9212543920071158  0.013563202592274441  0.9992687051856852  1.0000
  C   C12       1.0  0.07874560786356265  0.9864367975167817  0.4992687052740175  1.0000
  C   C13       1.0  0.6240380115184699  0.5841913972814282  0.42540588167018106  1.0000
  C   C14       1.0  0.3759619887949192  0.41580860282762794  0.9254058815818488  1.0000
  C   C15       1.0  0.8759619885089031  0.08419139856255328  0.9254058815818488  1.0000
  C   C16       1.0  0.12403801136177536  0.9158086015465029  0.42540588167018106  1.0000
  C   C17       1.0  0.6180464119089845  0.49497371681725605  0.3203865199491667  1.0000
  C   C18       1.0  0.3819535879616939  0.5050262832918001  0.8203865198608344  1.0000
  C   C19       1.0  0.8819535881183884  0.9949737155361309  0.8203865198608344  1.0000
  C   C20       1.0  0.11804641175228991  0.005026284572925203  0.3203865199491667  1.0000
  C   C21       1.0  0.565107814967193  0.32599148923756627  0.291095084463942  1.0000
  C   C22       1.0  0.4348921853461961  0.6740085108714899  0.7910950843756097  1.0000
  C   C23       1.0  0.93489218506018  0.8259914906277476  0.7910950843756097  1.0000
  C   C24       1.0  0.06510781481049842  0.17400850948130867  0.291095084463942  1.0000
  C   C25       1.0  0.3528773577418357  0.6949356127913557  0.5043186360701332  1.0000
  C   C26       1.0  0.6471226421288426  0.30506438731770036  0.004318636158465435  1.0000
  C   C27       1.0  0.1471226424148589  0.19493561140117455  0.004318636158465435  1.0000
  C   C28       1.0  0.8528773578985301  0.8050643887078817  0.5043186360701332  1.0000
  C   C29       1.0  0.3296555824214693  0.6837816052780894  0.3934785205570258  1.0000
  C   C30       1.0  0.670344417449209  0.31621839483096675  0.8934785204686935  1.0000
  C   C31       1.0  0.17034441773522527  0.18378160388790815  0.8934785204686935  1.0000
  C   C32       1.0  0.8296555825781639  0.816218396221148  0.3934785205570258  1.0000
  C   C33       1.0  0.2740210367714786  0.5363430598594688  0.3728093784030745  1.0000
  C   C34       1.0  0.7259789630991998  0.46365694024958726  0.8728093790993932  1.0000
  C   C35       1.0  0.2259789629425052  0.03634306114059396  0.8728093790993932  1.0000
  C   C36       1.0  0.7740210369281731  0.9636569389684623  0.3728093784030745  1.0000
  C   C37       1.0  0.253389249109812  0.5296433247526862  0.2697501075825162  1.0000
  C   C38       1.0  0.7466107507608664  0.47035667535637005  0.7697501074941839  1.0000
  C   C39       1.0  0.24661075104688257  0.029643323362504886  0.7697501074941839  1.0000
  C   C40       1.0  0.7533892492665066  0.9703566767465512  0.2697501075825162  1.0000
  C   C41       1.0  0.28899445276980124  0.6717851211753719  0.1908048984520893  1.0000
  C   C42       1.0  0.711005547100877  0.32821487893368423  0.690804898363757  1.0000
  C   C43       1.0  0.2110055469441826  0.17178511978519065  0.690804898363757  1.0000
  C   C44       1.0  0.7889944529264957  0.8282148803238655  0.1908048984520893  1.0000
  C   C45       1.0  0.3440315319160415  0.8123560425558557  0.2181570009763849  1.0000
  C   C46       1.0  0.6559684679546369  0.18764395488189411  0.7181570008880526  1.0000
  C   C47       1.0  0.15596846824065305  0.3123560438369808  0.7181570008880526  1.0000
  C   C48       1.0  0.8440315320727361  0.6876439562720753  0.2181570009763849  1.0000
  N   N1        1.0  0.5452472839024074  0.20228087302452155  0.19579288655230367  1.0000
  N   N2        1.0  0.454752715968271  0.7977191270845346  0.6957928864639714  1.0000
  N   N3        1.0  0.9547527161249655  0.7022808717433965  0.6957928864639714  1.0000
  N   N4        1.0  0.04524728374571285  0.2977191283656597  0.19579288655230367  1.0000
  N   N5        1.0  0.4921461488041547  0.06431717333238246  0.2078098378217859  1.0000
  N   N6        1.0  0.5078538510665237  0.9356828267766737  0.7078098377334535  1.0000
  N   N7        1.0  0.00785385135253987  0.5643171720512573  0.7078098377334535  1.0000
  N   N8        1.0  0.9921461489608493  0.4356828280577988  0.2078098378217859  1.0000
  N   N9        1.0  0.47659002982049736  0.09367590907532627  0.3088885469845903  1.0000
  N   N10       1.0  0.5234099700501811  0.9063240910337298  0.808888546896258  1.0000
  N   N11       1.0  0.023409970336197256  0.5936759104655076  0.808888546896258  1.0000
  N   N12       1.0  0.9765900299771919  0.4063240896435486  0.3088885469845903  1.0000
  N   N13       1.0  0.36415068442431653  0.8178438620794513  0.31704790177814784  1.0000
  N   N14       1.0  0.6358493154463619  0.1821561380296049  0.8170479016898154  1.0000
  N   N15       1.0  0.1358493152896673  0.31784386068927006  0.8170479016898154  1.0000
  N   N16       1.0  0.8641506845810111  0.6821561394197861  0.31704790177814784  1.0000
  O   O1        1.0  0.4066481371352629  0.8316189927591888  0.5113625852869165  1.0000
  O   O2        1.0  0.5933518631781263  0.16838100734986736  0.011362584590597939  1.0000
  O   O3        1.0  0.09335186302143168  0.33161899404031386  0.011362584590597939  1.0000
  O   O4        1.0  0.9066481368492467  0.6683810060687423  0.5113625852869165  1.0000
  O   O5        1.0  0.32296462864043435  0.5833111404065925  0.5784992527037807  1.0000
  O   O6        1.0  0.677035371230244  0.41668885970246367  0.07849925279211302  1.0000
  O   O7        1.0  0.17703537151626023  0.08331113901641123  0.07849925279211302  1.0000
  O   O8        1.0  0.8229646287971288  0.9166888610926449  0.5784992527037807  1.0000
