data_image0
_chemical_formula_structural       H64C72N8O8
_chemical_formula_sum              "H64 C72 N8 O8"
_cell_length_a       7.573028916795976
_cell_length_b       19.49462570167827
_cell_length_c       11.459090392799236
_cell_angle_alpha    90.0
_cell_angle_beta     125.2731958032077
_cell_angle_gamma    90.0

_space_group_name_H-M_alt    "P 1"
_space_group_IT_number       1

loop_
  _space_group_symop_operation_xyz
  'x, y, z'

loop_
  _atom_site_type_symbol
  _atom_site_label
  _atom_site_symmetry_multiplicity
  _atom_site_fract_x
  _atom_site_fract_y
  _atom_site_fract_z
  _atom_site_occupancy
  H   H1        1.0  0.3993658912181791  0.8315132328293176  0.38353316552841327  1.0000
  H   H2        1.0  0.6006341084802843  0.3315132328723619  0.11646683511291639  1.0000
  H   H3        1.0  0.6006341084659392  0.16848676708459365  0.6164668348076221  1.0000
  H   H4        1.0  0.39936589120383414  0.6684867670415492  0.883533165223119  1.0000
  H   H5        1.0  0.06435519350291212  0.8405623580959193  0.13720306573362936  1.0000
  H   H6        1.0  0.9356448061973194  0.34056235813896363  0.3627969340357059  1.0000
  H   H7        1.0  0.9356448061812064  0.15943764181799194  0.862796934602406  1.0000
  H   H8        1.0  0.0643551934885671  0.6594376417749475  0.6372030654283352  1.0000
  H   H9        1.0  0.8915381063767716  0.953727450042777  0.0369155899974174  1.0000
  H   H10       1.0  0.10846189332345986  0.45372745008582155  0.4630844097719179  1.0000
  H   H11       1.0  0.10846189330911482  0.046272549871134085  0.9630844094666235  1.0000
  H   H12       1.0  0.8915381063624266  0.5462725498280896  0.5369155896921232  1.0000
  H   H13       1.0  0.9534831648102632  0.9400275655675902  0.8177319226544008  1.0000
  H   H14       1.0  0.046516834859510074  0.4400275656106347  0.6822680773763403  1.0000
  H   H15       1.0  0.04651683487562308  0.05997243485928278  0.18226807680964022  1.0000
  H   H16       1.0  0.9534831648246084  0.5599724348162384  0.31773192295969505  1.0000
  H   H17       1.0  0.4417641379400429  0.010039978350707713  0.10757413901047207  1.0000
  H   H18       1.0  0.5582358617601886  0.5100399783076632  0.39242586075886315  1.0000
  H   H19       1.0  0.5582358617440755  0.9899600215632034  0.8924258613255632  1.0000
  H   H20       1.0  0.44176413792569785  0.4899600216062479  0.6075741387051777  1.0000
  H   H21       1.0  0.7191003369310708  0.07357713156177795  0.32181858257746027  1.0000
  H   H22       1.0  0.2808996627691607  0.5735771315187335  0.178181417191875  1.0000
  H   H23       1.0  0.2808996627548156  0.9264228683521333  0.6781814168865807  1.0000
  H   H24       1.0  0.7191003369149578  0.42642286839517757  0.8218185831441603  1.0000
  H   H25       1.0  0.04601372592963715  0.879173306134547  0.5016503397766159  1.0000
  H   H26       1.0  0.9539862737401362  0.37917330617759154  0.9983496602541253  1.0000
  H   H27       1.0  0.9539862737562492  0.12082669377936403  0.4983496596874252  1.0000
  H   H28       1.0  0.046013725943982176  0.6208266937363196  0.0016503400819100917  1.0000
  H   H29       1.0  0.748407654751329  0.8238627976641447  0.28221283161168637  1.0000
  H   H30       1.0  0.2515923449489023  0.3238627977071892  0.2177871681576489  1.0000
  H   H31       1.0  0.25159234493455734  0.17613720224976642  0.7177871678523546  1.0000
  H   H32       1.0  0.748407654735216  0.676137202206722  0.7822128321783864  1.0000
  H   H33       1.0  0.4010852638235827  0.8744825302561403  0.04755075046263113  1.0000
  H   H34       1.0  0.5989147374940693  0.3744825302991848  0.45244924992492946  1.0000
  H   H35       1.0  0.5989147374779562  0.12551746965777075  0.9524492504916295  1.0000
  H   H36       1.0  0.4010852638092377  0.6255174696147263  0.5475507501573368  1.0000
  H   H37       1.0  0.17986541554039276  0.7173213430199965  0.49534325094495774  1.0000
  H   H38       1.0  0.8201345841598386  0.21732134306304102  0.004656748824377481  1.0000
  H   H39       1.0  0.8201345841454937  0.2826786568939145  0.5046567485190833  1.0000
  H   H40       1.0  0.17986541552427976  0.7826786568508701  0.9953432515116578  1.0000
  H   H41       1.0  0.9486499064246414  0.7547394807756347  0.7580239075610266  1.0000
  H   H42       1.0  0.05135009324513192  0.2547394808186791  0.7419760924697146  1.0000
  H   H43       1.0  0.05135009325947695  0.24526051913827648  0.24197609277500884  1.0000
  H   H44       1.0  0.9486499064389865  0.745260519095232  0.2580239078663208  1.0000
  H   H45       1.0  0.8611858906653643  0.7700016568519051  0.579270902709621  1.0000
  H   H46       1.0  0.1388141090044091  0.2700016568949495  0.9207290973211202  1.0000
  H   H47       1.0  0.13881410901875413  0.22999834306200612  0.4207290976264144  1.0000
  H   H48       1.0  0.8611858906797093  0.7299983430189616  0.07927090301491518  1.0000
  H   H49       1.0  0.8852525620077383  0.8391757651746881  0.6876801654569997  1.0000
  H   H50       1.0  0.11474743766203498  0.3391757652177324  0.8123198345737414  1.0000
  H   H51       1.0  0.11474743767814799  0.16082423473922322  0.31231983400704133  1.0000
  H   H52       1.0  0.8852525620220834  0.6608242346961788  0.1876801657622939  1.0000
  H   H53       1.0  0.5162619895884437  0.7769905589259916  0.6235653169349471  1.0000
  H   H54       1.0  0.4837380100813297  0.276990558969036  0.876434683095794  1.0000
  H   H55       1.0  0.48373801009567474  0.22300944098791955  0.37643468340108815  1.0000
  H   H56       1.0  0.5162619896045566  0.723009441457837  0.12356531636824704  1.0000
  H   H57       1.0  0.7855400800347953  0.8284214576435641  0.8624211121885342  1.0000
  H   H58       1.0  0.21445991963497807  0.32842145768660846  0.6375788878422067  1.0000
  H   H59       1.0  0.21445991964932312  0.17157854227034708  0.13757888814750102  1.0000
  H   H60       1.0  0.7855400800509085  0.6715785422273027  0.3624211116218342  1.0000
  H   H61       1.0  0.6758223227227361  0.8609762894065234  0.022414258153630854  1.0000
  H   H62       1.0  0.32417767697749533  0.36097628944956783  0.4775857416157044  1.0000
  H   H63       1.0  0.32417767696138233  0.1390237105073877  0.9775857421824045  1.0000
  H   H64       1.0  0.675822322708391  0.6390237104643434  0.5224142578483366  1.0000
  C   C1        1.0  0.6848430771751004  0.9932029286580832  0.6334334266239825  1.0000
  C   C2        1.0  0.31515692249467286  0.4932029287011277  0.8665665734067587  1.0000
  C   C3        1.0  0.31515692251078586  0.006797071255827839  0.36656657284005845  1.0000
  C   C4        1.0  0.6848430771894455  0.5067970717257453  0.1334334269292768  1.0000
  C   C5        1.0  0.41677353651913845  0.9407028804057134  0.424944102831106  1.0000
  C   C6        1.0  0.583226463181093  0.4407028804487578  0.07505589693822923  1.0000
  C   C7        1.0  0.58322646316498  0.05929711950819776  0.5750558975049294  1.0000
  C   C8        1.0  0.4167735365047934  0.5592971194651534  0.9249441025258118  1.0000
  C   C9        1.0  0.3207660273993975  0.8808507484461061  0.33929832048701675  1.0000
  C   C10       1.0  0.6792339723008338  0.3808507484891505  0.16070167928231852  1.0000
  C   C11       1.0  0.679233972286489  0.11914925146780506  0.6607016789770243  1.0000
  C   C12       1.0  0.3207660273850525  0.6191492514247606  0.8392983201817223  1.0000
  C   C13       1.0  0.1353731368306125  0.8862167227202874  0.20327017738003808  1.0000
  C   C14       1.0  0.8646268628696189  0.38621672276333185  0.2967298223892971  1.0000
  C   C15       1.0  0.8646268628552738  0.11378327719362373  0.7967298220840029  1.0000
  C   C16       1.0  0.13537313681626748  0.6137832771505793  0.7032701770747437  1.0000
  C   C17       1.0  0.0366111701622764  0.9511350017047898  0.14602832760760417  1.0000
  C   C18       1.0  0.9633888311553755  0.4511350017478342  0.35397167277995645  1.0000
  C   C19       1.0  0.9633888311392625  0.04886499820912136  0.8539716733466567  1.0000
  C   C20       1.0  0.03661117014793137  0.5488649981660769  0.6460283273023099  1.0000
  C   C21       1.0  0.8777342391183337  0.9899000624740737  0.7750115860025331  1.0000
  C   C22       1.0  0.12226576055143976  0.489900062517118  0.7249884140282079  1.0000
  C   C23       1.0  0.12226576056578477  0.010099937439837564  0.2249884143335022  1.0000
  C   C24       1.0  0.8777342391344467  0.510099937396793  0.27501158543583304  1.0000
  C   C25       1.0  0.57791207861026  0.9826402949788805  0.19817084675011323  1.0000
  C   C26       1.0  0.4220879210899715  0.482640294508963  0.30182915301922203  1.0000
  C   C27       1.0  0.4220879210756264  0.017359705447992556  0.8018291527139277  1.0000
  C   C28       1.0  0.577912078594147  0.5173597054049481  0.6981708473168132  1.0000
  C   C29       1.0  0.7363771774744475  0.018257313859037533  0.3196378196976527  1.0000
  C   C30       1.0  0.2636228222257837  0.5182573138159932  0.18036218007168253  1.0000
  C   C31       1.0  0.2636228222114387  0.9817426860548737  0.6803621797663882  1.0000
  C   C32       1.0  0.7363771774583345  0.48174268609791804  0.8196378202643527  1.0000
  C   C33       1.0  0.9127822174765913  0.9823190228449169  0.4342826907179307  1.0000
  C   C34       1.0  0.08721778222187218  0.4823190228879613  0.06571730992339891  1.0000
  C   C35       1.0  0.08721778220752717  0.017680977068994276  0.5657173096181046  1.0000
  C   C36       1.0  0.9127822174622462  0.5176809770259498  0.9342826904126363  1.0000
  C   C37       1.0  0.915836176042478  0.9110352505239963  0.41860876947061854  1.0000
  C   C38       1.0  0.08416382365598538  0.4110352505670407  0.08139123117071109  1.0000
  C   C39       1.0  0.08416382364164036  0.08896474990287671  0.5813912308654169  1.0000
  C   C40       1.0  0.915836176028133  0.5889647498598323  0.9186087691653244  1.0000
  C   C41       1.0  0.7490040044681653  0.8794018106500052  0.2943336673597418  1.0000
  C   C42       1.0  0.25099599523206617  0.37940181069304973  0.20566633240959348  1.0000
  C   C43       1.0  0.25099599521772115  0.12059818926390589  0.7056663321042993  1.0000
  C   C44       1.0  0.7490040044520522  0.6205981892208614  0.7943336679264419  1.0000
  C   C45       1.0  0.9588391141923388  0.7905513789204601  0.688046298496995  1.0000
  C   C46       1.0  0.04116088547743452  0.2905513789635046  0.8119537015337462  1.0000
  C   C47       1.0  0.04116088549177955  0.20944862099345096  0.31195370183904036  1.0000
  C   C48       1.0  0.9588391142084519  0.7094486209504065  0.18804629793029493  1.0000
  C   C49       1.0  0.18872954739378495  0.8001122954957374  0.7373365362291013  1.0000
  C   C50       1.0  0.8112704522759885  0.30011229553878177  0.7626634638016397  1.0000
  C   C51       1.0  0.8112704522903335  0.1998877044181738  0.2626634641069341  1.0000
  C   C52       1.0  0.18872954740989797  0.6998877043751294  0.23733653566240118  1.0000
  C   C53       1.0  0.25788548895587343  0.7797140392744976  0.651785109311308  1.0000
  C   C54       1.0  0.7421145107139  0.2797140388045801  0.8482148907194332  1.0000
  C   C55       1.0  0.742114510730013  0.22028596115237548  0.34821489015273316  1.0000
  C   C56       1.0  0.2578854889702184  0.7202859611093311  0.1517851096166021  1.0000
  C   C57       1.0  0.4706964171740242  0.7907646623178245  0.6950035285973106  1.0000
  C   C58       1.0  0.5293035824975172  0.29076466236086895  0.8049964705614361  1.0000
  C   C59       1.0  0.529303582511862  0.20923533759608662  0.30499647086673026  1.0000
  C   C60       1.0  0.4706964171883693  0.7092353375530422  0.195003528902605  1.0000
  C   C61       1.0  0.6196309855847629  0.8204161179982604  0.8277166262705078  1.0000
  C   C62       1.0  0.3803690140850104  0.3204161180413049  0.6722833737602333  1.0000
  C   C63       1.0  0.3803690140993555  0.17958388191565072  0.17228337406552752  1.0000
  C   C64       1.0  0.6196309856008759  0.6795838818726062  0.3277166257038077  1.0000
  C   C65       1.0  0.5589418661607192  0.8390821855375141  0.9173358522071211  1.0000
  C   C66       1.0  0.4410581335090541  0.3390821855805587  0.58266414782362  1.0000
  C   C67       1.0  0.44105813352516715  0.1609178143763969  0.08266414725691985  1.0000
  C   C68       1.0  0.5589418661750643  0.6609178148463144  0.41733585251241545  1.0000
  C   C69       1.0  0.3442544265989875  0.8294765571522572  0.8713050114542296  1.0000
  C   C70       1.0  0.6557455746882065  0.3294765571953018  0.628694989194737  1.0000
  C   C71       1.0  0.6557455747025513  0.17052344276165385  0.12869498950003116  1.0000
  C   C72       1.0  0.3442544266151005  0.6705234427186094  0.3713050108875295  1.0000
  N   N1        1.0  0.6001261460884717  0.935081637829583  0.5574526387318138  1.0000
  N   N2        1.0  0.39987385358130156  0.43508163787262744  0.9425473612989272  1.0000
  N   N3        1.0  0.3998738535974146  0.06491836208432816  0.44254736073222706  1.0000
  N   N4        1.0  0.6001261461028168  0.5649183620412838  0.0574526390371082  1.0000
  N   N5        1.0  0.5819598639782658  0.9143245257827912  0.18474358663530158  1.0000
  N   N6        1.0  0.4180401357219657  0.41432452531287384  0.3152564131340337  1.0000
  N   N7        1.0  0.41804013570762066  0.08567547464408169  0.8152564128287394  1.0000
  N   N8        1.0  0.5819598639621527  0.5856754746010372  0.6847435872020016  1.0000
  O   O1        1.0  0.2784772502775779  0.8478019148927368  0.9562264908680629  1.0000
  O   O2        1.0  0.7215227493921953  0.3478019149357812  0.5437735091626782  1.0000
  O   O3        1.0  0.7215227494083084  0.15219808502117435  0.04377350859597811  1.0000
  O   O4        1.0  0.27847725029192294  0.6521980854910918  0.4562264911733572  1.0000
  O   O5        1.0  0.10755522079616237  0.7502326668801292  0.5224975788084399  1.0000
  O   O6        1.0  0.892444778873611  0.2502326669231737  0.977502421222301  1.0000
  O   O7        1.0  0.8924447788897241  0.24976733303378187  0.47750242065560106  1.0000
  O   O8        1.0  0.1075552208105074  0.7497673329907374  0.022497579113734262  1.0000
