data_image0
_chemical_formula_structural       H40C64N8O8I16
_chemical_formula_sum              "H40 C64 N8 O8 I16"
_cell_length_a       29.18226777311498
_cell_length_b       4.880596595680828
_cell_length_c       14.761745921189368
_cell_angle_alpha    90.0
_cell_angle_beta     119.44646751272687
_cell_angle_gamma    90.0

_space_group_name_H-M_alt    "P 1"
_space_group_IT_number       1

loop_
  _space_group_symop_operation_xyz
  'x, y, z'

loop_
  _atom_site_type_symbol
  _atom_site_label
  _atom_site_symmetry_multiplicity
  _atom_site_fract_x
  _atom_site_fract_y
  _atom_site_fract_z
  _atom_site_occupancy
  H   H1        1.0  0.5876678837375457  0.009566764858484822  0.07108199162407405  1.0000
  H   H2        1.0  0.4123321161941537  0.009566764858484822  0.4289180086383157  1.0000
  H   H3        1.0  0.08766788403469197  0.5095667653009688  0.07108199199464373  1.0000
  H   H4        1.0  0.9123321162407403  0.5095667653009688  0.4289180082720253  1.0000
  H   H5        1.0  0.41233211599328234  0.9904332360264833  0.9289180080817446  1.0000
  H   H6        1.0  0.5876678837282396  0.9904332360264833  0.5710819918454135  1.0000
  H   H7        1.0  0.9123321162314341  0.49043323558399915  0.9289180084933647  1.0000
  H   H8        1.0  0.08766788383382065  0.49043323558399915  0.5710819914380727  1.0000
  H   H9        1.0  0.5780228378135017  0.1267241100293647  0.16681784063426847  1.0000
  H   H10       1.0  0.4219771624619305  0.1267241100293647  0.3331821596324005  1.0000
  H   H11       1.0  0.07802283776691521  0.6267241104718487  0.1668178410005589  1.0000
  H   H12       1.0  0.9219771621647842  0.6267241104718487  0.33318215926183087  1.0000
  H   H13       1.0  0.42197716226105914  0.8732758888066735  0.8331821590758295  1.0000
  H   H14       1.0  0.5780228378041956  0.8732758888066735  0.6668178408556079  1.0000
  H   H15       1.0  0.921977162499211  0.3732758883641895  0.8331821594874494  1.0000
  H   H16       1.0  0.07802283756604386  0.3732758883641895  0.6668178404439878  1.0000
  H   H17       1.0  0.5079868925286675  0.9923687227676656  0.1888310522054417  1.0000
  H   H18       1.0  0.49201310721146685  0.9923687227676656  0.3111689472790376  1.0000
  H   H19       1.0  0.007986892825813637  0.4923687223251816  0.1888310525760114  1.0000
  H   H20       1.0  0.9920131074496187  0.4923687223251816  0.3111689476906576  1.0000
  H   H21       1.0  0.4920131072021607  0.007631278117302463  0.811168947500377  1.0000
  H   H22       1.0  0.5079868925193612  0.007631278117302463  0.6888310524267811  1.0000
  H   H23       1.0  0.9920131074403126  0.5076312785597865  0.811168947911997  1.0000
  H   H24       1.0  0.007986892816507515  0.5076312785597865  0.6888310527973509  1.0000
  H   H25       1.0  0.4298398899514994  0.6889861012024328  0.1349781392120042  1.0000
  H   H26       1.0  0.5701601099802001  0.6889861012024328  0.36502186105038553  1.0000
  H   H27       1.0  0.929839889998086  0.1889861007599488  0.13497813884571375  1.0000
  H   H28       1.0  0.0701601100857811  0.1889861007599488  0.3650218606430448  1.0000
  H   H29       1.0  0.570160109970894  0.31101389968253523  0.865021861271725  1.0000
  H   H30       1.0  0.42983988975062815  0.31101389968253523  0.6349781386554333  1.0000
  H   H31       1.0  0.07016011007647498  0.8110139001250193  0.8650218608643843  1.0000
  H   H32       1.0  0.9298398899887799  0.8110139001250193  0.6349781390670532  1.0000
  H   H33       1.0  0.4093995127310751  0.3297963309289784  0.00506725893201832  1.0000
  H   H34       1.0  0.5906004872006244  0.3297963309289784  0.4949327413303714  1.0000
  H   H35       1.0  0.9093995127776617  0.8297963313714625  0.00506725856572787  1.0000
  H   H36       1.0  0.09060048749777061  0.8297963313714625  0.4949327417009411  1.0000
  H   H37       1.0  0.5906004875350511  0.6702036679070598  0.9949327415559902  1.0000
  H   H38       1.0  0.4093995125302038  0.6702036679070598  0.5050672583754473  1.0000
  H   H39       1.0  0.09060048729689932  0.17020366951350557  0.9949327411443701  1.0000
  H   H40       1.0  0.9093995127683555  0.17020366951350557  0.5050672587870673  1.0000
  C   C1        1.0  0.7147330266216163  0.402819219220012  0.4080396760228183  1.0000
  C   C2        1.0  0.2852669734622507  0.402819219220012  0.0919603234659402  1.0000
  C   C3        1.0  0.2147330265750298  0.9028192196624961  0.4080396763891088  1.0000
  C   C4        1.0  0.7852669733566697  0.9028192196624961  0.09196032387328097  1.0000
  C   C5        1.0  0.2852669734529446  0.5971807796160261  0.5919603236872796  1.0000
  C   C6        1.0  0.7147330266123103  0.5971807796160261  0.9080396762441577  1.0000
  C   C7        1.0  0.7852669731557985  0.09718078122247197  0.59196032331671  1.0000
  C   C8        1.0  0.2147330265657236  0.09718078122247197  0.9080396766104482  1.0000
  C   C9        1.0  0.7672873948703343  0.4300395717723146  0.44568593323256644  1.0000
  C   C10       1.0  0.23271260521353299  0.4300395717723146  0.05431406625619209  1.0000
  C   C11       1.0  0.2672873948237475  0.9300395722147987  0.4456859335988569  1.0000
  C   C12       1.0  0.732712605107952  0.9300395722147987  0.05431406666353287  1.0000
  C   C13       1.0  0.23271260520422685  0.5699604270637235  0.5543140664775316  1.0000
  C   C14       1.0  0.767287394861028  0.5699604270637235  0.9456859334539058  1.0000
  C   C15       1.0  0.7327126054423787  0.06996042662123952  0.5543140668891515  1.0000
  C   C16       1.0  0.26728739481444136  0.06996042662123952  0.9456859338201963  1.0000
  C   C17       1.0  0.8064176170346927  0.27949295813695774  0.5401835119043016  1.0000
  C   C18       1.0  0.19358238303056208  0.27949295813695774  0.9598164880271358  1.0000
  C   C19       1.0  0.30641761698810616  0.7794929585794418  0.5401835122705921  1.0000
  C   C20       1.0  0.6935823830771486  0.7794929585794418  0.9598164876608453  1.0000
  C   C21       1.0  0.1935823830398682  0.7205070406990804  0.4598164878057963  1.0000
  C   C22       1.0  0.806417617043999  0.7205070406990804  0.040183511682962206  1.0000
  C   C23       1.0  0.6935823829342872  0.22050704025659648  0.45981648821313714  1.0000
  C   C24       1.0  0.30641761699741227  0.22050704025659648  0.040183512049252655  1.0000
  C   C25       1.0  0.532936880791396  0.7946215824172208  0.09138824571853163  1.0000
  C   C26       1.0  0.46706311894873836  0.7946215824172208  0.40861175376594766  1.0000
  C   C27       1.0  0.03293688074480931  0.2946215819747367  0.09138824608482209  1.0000
  C   C28       1.0  0.9670631191868901  0.2946215819747367  0.4086117541775676  1.0000
  C   C29       1.0  0.4670631192831651  0.2053784184677473  0.9086117539915665  1.0000
  C   C30       1.0  0.5329368807820898  0.2053784184677473  0.591388245939871  1.0000
  C   C31       1.0  0.967063119177584  0.7053784168613015  0.908611754398907  1.0000
  C   C32       1.0  0.03293688088767082  0.7053784168613015  0.5913882455325303  1.0000
  C   C33       1.0  0.4997885425492346  0.8279214765620939  0.13292534239975104  1.0000
  C   C34       1.0  0.5002114577261977  0.8279214765620939  0.3670746578669179  1.0000
  C   C35       1.0  0.9997885422520884  0.32792147611960987  0.13292534202918135  1.0000
  C   C36       1.0  0.0002114574880459208  0.32792147611960987  0.367074657455298  1.0000
  C   C37       1.0  0.5002114575253264  0.17207852432287413  0.8670746573103469  1.0000
  C   C38       1.0  0.4997885425399285  0.17207852432287413  0.6329253426210906  1.0000
  C   C39       1.0  0.00021145747873977527  0.6720785227164283  0.8670746576766374  1.0000
  C   C40       1.0  0.9997885425865151  0.6720785227164283  0.6329253422548  1.0000
  C   C41       1.0  0.45548660412070274  0.6588354654932194  0.10152366067228735  1.0000
  C   C42       1.0  0.5445133956194316  0.6588354654932194  0.39847633881219197  1.0000
  C   C43       1.0  0.9554866043588545  0.15883546505073534  0.10152366108390735  1.0000
  C   C44       1.0  0.044513395916577776  0.15883546505073534  0.39847633918276165  1.0000
  C   C45       1.0  0.5445133959538583  0.3411645353917487  0.8984763390378107  1.0000
  C   C46       1.0  0.45548660411139663  0.3411645353917487  0.6015236608936269  1.0000
  C   C47       1.0  0.04451339590727163  0.8411645358342327  0.8984763394041011  1.0000
  C   C48       1.0  0.9554866041579833  0.8411645358342327  0.6015236605273364  1.0000
  C   C49       1.0  0.44399518144514416  0.45676898229467766  0.027803648047039026  1.0000
  C   C50       1.0  0.5560048184865554  0.45676898229467766  0.4721963522153508  1.0000
  C   C51       1.0  0.9439951814917308  0.9567689827371617  0.027803647680748576  1.0000
  C   C52       1.0  0.05600481878370148  0.9567689827371617  0.47219635258592035  1.0000
  C   C53       1.0  0.5560048184772491  0.5432310185902904  0.9721963524366901  1.0000
  C   C54       1.0  0.4439951812442729  0.5432310185902904  0.527803647490468  1.0000
  C   C55       1.0  0.05600481858283017  0.0432310181478064  0.9721963520293494  1.0000
  C   C56       1.0  0.9439951814824247  0.0432310181478064  0.527803647902088  1.0000
  C   C57       1.0  0.4771312008938338  0.41552275428678415  0.9838721989296552  1.0000
  C   C58       1.0  0.5228687988276882  0.41552275428678415  0.516127800997503  1.0000
  C   C59       1.0  0.9771312011319856  0.9155227547292683  0.983872199341275  1.0000
  C   C60       1.0  0.022868798933269242  0.9155227547292683  0.5161278005901623  1.0000
  C   C61       1.0  0.5228687988369943  0.584477244549254  0.01612780077616365  1.0000
  C   C62       1.0  0.47713120090313993  0.584477244549254  0.48387219870831566  1.0000
  C   C63       1.0  0.02286879913414057  0.08447724410677002  0.016127801146733334  1.0000
  C   C64       1.0  0.9771312011412917  0.08447724410677002  0.4838721991199356  1.0000
  N   N1        1.0  0.5780198984230592  0.9571762075427845  0.12651668967624652  1.0000
  N   N2        1.0  0.4219801013170751  0.9571762075427845  0.3734833098082328  1.0000
  N   N3        1.0  0.07801989872020546  0.45717620710030055  0.1265166900468162  1.0000
  N   N4        1.0  0.9219801012114941  0.45717620710030055  0.3734833102155735  1.0000
  N   N5        1.0  0.4219801013077689  0.04282379334218348  0.8734833100295721  1.0000
  N   N6        1.0  0.578019898757486  0.04282379334218348  0.6265166899018653  1.0000
  N   N7        1.0  0.9219801015459208  0.5428237937846675  0.8734833104411923  1.0000
  N   N8        1.0  0.0780198985193341  0.5428237937846675  0.6265166894902451  1.0000
  O   O1        1.0  0.8541816449086906  0.3050821801821733  0.5745654120482734  1.0000
  O   O2        1.0  0.1458183551565642  0.3050821801821733  0.9254345878831641  1.0000
  O   O3        1.0  0.3541816446705389  0.8050821785757275  0.5745654116366533  1.0000
  O   O4        1.0  0.645818355394716  0.8050821785757275  0.9254345882947841  1.0000
  O   O5        1.0  0.1458183553574355  0.6949178207027947  0.42543458843973514  1.0000
  O   O6        1.0  0.854181644574264  0.6949178207027947  0.07456541182265465  1.0000
  O   O7        1.0  0.6458183554040221  0.1949178202603107  0.42543458807344464  1.0000
  O   O8        1.0  0.3541816448714102  0.1949178202603107  0.07456541219322434  1.0000
  I   I1        1.0  0.6570378980609227  0.6245880068632804  0.27926147875118373  1.0000
  I   I2        1.0  0.34296210202294436  0.6245880068632804  0.22073852073757477  1.0000
  I   I3        1.0  0.15703789801433615  0.1245880064207964  0.2792614791174742  1.0000
  I   I4        1.0  0.8429621019173633  0.1245880064207964  0.22073852114491557  1.0000
  I   I5        1.0  0.3429621020136382  0.3754119940216876  0.7207385209589143  1.0000
  I   I6        1.0  0.6570378980516166  0.3754119940216876  0.7792614789725231  1.0000
  I   I7        1.0  0.8429621017164921  0.8754119944641715  0.7207385205883445  1.0000
  I   I8        1.0  0.15703789800503004  0.8754119944641715  0.7792614793388136  1.0000
  I   I9        1.0  0.7993531562106264  0.6897985858899625  0.37803386493931074  1.0000
  I   I10       1.0  0.2006468438732406  0.6897985858899625  0.12196613454944784  1.0000
  I   I11       1.0  0.29935315616403985  0.1897985874964083  0.3780338653056011  1.0000
  I   I12       1.0  0.7006468437676596  0.1897985874964083  0.12196613495678862  1.0000
  I   I13       1.0  0.20064684386393453  0.3102014129460757  0.6219661347707873  1.0000
  I   I14       1.0  0.7993531562013203  0.3102014129460757  0.8780338651606501  1.0000
  I   I15       1.0  0.7006468435667884  0.8102014133885597  0.6219661344002176  1.0000
  I   I16       1.0  0.29935315615473373  0.8102014133885597  0.8780338655269405  1.0000
