data_image0
_chemical_formula_structural       H26C32O8P2Br4
_chemical_formula_sum              "H26 C32 O8 P2 Br4"
_cell_length_a       4.761339996733678
_cell_length_b       11.735571015089802
_cell_length_c       14.67851692540669
_cell_angle_alpha    82.38330458186485
_cell_angle_beta     89.72089444433216
_cell_angle_gamma    83.25889112599279

_space_group_name_H-M_alt    "P 1"
_space_group_IT_number       1

loop_
  _space_group_symop_operation_xyz
  'x, y, z'

loop_
  _atom_site_type_symbol
  _atom_site_label
  _atom_site_symmetry_multiplicity
  _atom_site_fract_x
  _atom_site_fract_y
  _atom_site_fract_z
  _atom_site_occupancy
  H   H1        1.0  0.12227004358593357  0.604054863561103  0.8749947070264713  1.0000
  H   H2        1.0  0.8777299555985032  0.3959451372187868  0.12500529284397646  1.0000
  H   H3        1.0  0.5773033066294765  0.1306126327993757  0.7892307525391439  1.0000
  H   H4        1.0  0.42269669281282546  0.8693873671229604  0.2107692473284841  1.0000
  H   H5        1.0  0.8077927390241406  0.5168152230122232  0.6487098713070214  1.0000
  H   H6        1.0  0.19220726041816122  0.48318477691011297  0.35129012856060643  1.0000
  H   H7        1.0  0.6053756799573792  0.70980219334285  0.8424029599729295  1.0000
  H   H8        1.0  0.3946243192270574  0.29019780743704  0.15759703989751822  1.0000
  H   H9        1.0  0.6714182664717071  0.9016816645172281  0.7555395129966944  1.0000
  H   H10       1.0  0.32858173270839586  0.09831833614405117  0.24446048756105734  1.0000
  H   H11       1.0  0.5291844088786839  0.9468235523405089  0.5902048535895991  1.0000
  H   H12       1.0  0.4708155905592841  0.05317644746321673  0.409795146965333  1.0000
  H   H13       1.0  0.30931883687967804  0.8013719747449446  0.5137936822346447  1.0000
  H   H14       1.0  0.6906811623047587  0.1986280260349453  0.4862063176358029  1.0000
  H   H15       1.0  0.26533060286403765  0.6068984093258271  0.5984732905559803  1.0000
  H   H16       1.0  0.7346693965782642  0.39310159059650907  0.4015267093116475  1.0000
  H   H17       1.0  0.6024667797558142  0.372469394777215  0.9848889492887793  1.0000
  H   H18       1.0  0.3975332196864876  0.627530605145121  0.015111050578848519  1.0000
  H   H19       1.0  0.5599986240694791  0.12394358004815413  0.981972954772513  1.0000
  H   H20       1.0  0.4400013751149575  0.876056420731736  0.018027045097934787  1.0000
  H   H21       1.0  0.9035445752872052  0.16250853722230674  0.9490143523547852  1.0000
  H   H22       1.0  0.09645542415509657  0.8374914627000294  0.050985647512842736  1.0000
  H   H23       1.0  0.11120364851887393  0.8794885415589975  0.8809421556021658  1.0000
  H   H24       1.0  0.8887963509234279  0.12051145836333849  0.11905784426546213  1.0000
  H   H25       1.0  0.2325671117411889  0.016329748023845243  0.8890307970585836  1.0000
  H   H26       1.0  0.7674328898003244  0.9836702519008576  0.11096920281832895  1.0000
  C   C1        1.0  0.23140610944978485  0.5257427413797428  0.8530292268660656  1.0000
  C   C2        1.0  0.7685938920873948  0.47425725842634947  0.14697077369815084  1.0000
  C   C3        1.0  0.39904150996982457  0.5308241796888351  0.7776296491502879  1.0000
  C   C4        1.0  0.6009584894724773  0.469175820233501  0.22237035071734004  1.0000
  C   C5        1.0  0.5461443631191472  0.42629885010712987  0.7467939705421082  1.0000
  C   C6        1.0  0.45385563632315445  0.5737011498152064  0.2532060293255198  1.0000
  C   C7        1.0  0.4861069871884695  0.3148603679907916  0.7848775358815859  1.0000
  C   C8        1.0  0.5138930143530436  0.6851396319339111  0.21512246399532647  1.0000
  C   C9        1.0  0.6246487212947132  0.21484112748474365  0.7564945246724121  1.0000
  C   C10       1.0  0.3753512781475886  0.7851588724375926  0.24350547519521584  1.0000
  C   C11       1.0  0.8281885763092519  0.22374938866490865  0.6883882261855515  1.0000
  C   C12       1.0  0.1718114252322612  0.776250611259794  0.31161177369136095  1.0000
  C   C13       1.0  0.8924687286884323  0.33301857971491683  0.6486344581620479  1.0000
  C   C14       1.0  0.10753127049600433  0.666981421064973  0.3513655417083999  1.0000
  C   C15       1.0  0.7545449369825057  0.43227068745966307  0.6785719192142227  1.0000
  C   C16       1.0  0.2454550624554625  0.5677293123440625  0.32142808134070944  1.0000
  C   C17       1.0  0.43540862819704457  0.6455999405187439  0.7256936583838657  1.0000
  C   C18       1.0  0.5645913733401351  0.3544000592873482  0.27430634218035094  1.0000
  C   C19       1.0  0.544764399029076  0.729975093507118  0.7700097505606657  1.0000
  C   C20       1.0  0.4552356025124372  0.2700249064175848  0.22999024931624668  1.0000
  C   C21       1.0  0.5800242712898799  0.8376431644266777  0.7211420999932975  1.0000
  C   C22       1.0  0.4199757302472997  0.1623568353794144  0.2788579005709192  1.0000
  C   C23       1.0  0.4990697137360819  0.8630273075183781  0.6286216678547624  1.0000
  C   C24       1.0  0.50093028570622  0.13697269240395796  0.3713783320128654  1.0000
  C   C25       1.0  0.3809713169223776  0.7806499450515645  0.5850989252802733  1.0000
  C   C26       1.0  0.6190286846191354  0.21935005487313827  0.4149010745966392  1.0000
  C   C27       1.0  0.3543566165363844  0.6716053062102559  0.6328007630491085  1.0000
  C   C28       1.0  0.6456433850051287  0.3283946937144469  0.3671992368278039  1.0000
  C   C29       1.0  0.7858322735850405  0.09204838041046226  0.9805679420198349  1.0000
  C   C30       1.0  0.2141677258572614  0.9079516195118741  0.01943205784779299  1.0000
  C   C31       1.0  0.10316739323643333  0.9509164029011994  0.922635011058853  1.0000
  C   C32       1.0  0.8968326083050798  0.049083597023503206  0.07736498881805934  1.0000
  O   O1        1.0  0.2822612267702165  0.2992161599375908  0.8509482997023728  1.0000
  O   O2        1.0  0.7177387747712968  0.7007838399871119  0.14905170017453956  1.0000
  O   O3        1.0  0.892954884071467  0.380194078269043  0.951411924715506  1.0000
  O   O4        1.0  0.1070451174700464  0.6198059216556597  0.04858807516140641  1.0000
  O   O5        1.0  0.3958332544453451  0.36599525792970455  0.003428424757380232  1.0000
  O   O6        1.0  0.6041667449926231  0.6340047418740211  0.9965715757975517  1.0000
  O   O7        1.0  0.8125166775696046  0.9998587408469986  0.9242432313146148  1.0000
  O   O8        1.0  0.18748332187269737  0.00014125907533766915  0.07575676855301307  1.0000
  P   P1        1.0  0.1846409124154767  0.39403238441111044  0.9199367187435065  1.0000
  P   P2        1.0  0.815359087026825  0.6059676155112258  0.08006328112412138  1.0000
  Br  Br1       1.0  0.017431862344825768  0.0848295756521895  0.6542700167058119  1.0000
  Br  Br2       1.0  0.982568137097476  0.9151704242701467  0.345729983161816  1.0000
  Br  Br3       1.0  0.1633491266233825  0.3470654562757317  0.5539328080569751  1.0000
  Br  Br4       1.0  0.8366508728189191  0.6529345436466045  0.44606719181065274  1.0000
