data_image0
_chemical_formula_structural       H22C16N8O4F18S4
_chemical_formula_sum              "H22 C16 N8 O4 F18 S4"
_cell_length_a       7.715747399840336
_cell_length_b       9.320352995191335
_cell_length_c       11.382075513839686
_cell_angle_alpha    106.72619292608573
_cell_angle_beta     103.07124846309893
_cell_angle_gamma    96.86759563888846

_space_group_name_H-M_alt    "P 1"
_space_group_IT_number       1

loop_
  _space_group_symop_operation_xyz
  'x, y, z'

loop_
  _atom_site_type_symbol
  _atom_site_label
  _atom_site_symmetry_multiplicity
  _atom_site_fract_x
  _atom_site_fract_y
  _atom_site_fract_z
  _atom_site_occupancy
  H   H1        1.0  0.9029350446751027  0.14701272588995146  0.5444718489516205  1.0000
  H   H2        1.0  0.09706495477945169  0.8529872743334596  0.4555281503989033  1.0000
  H   H3        1.0  0.8924028038955468  0.03138359393327766  0.2930181404558102  1.0000
  H   H4        1.0  0.10759719688458197  0.968616406282499  0.7069818599767754  1.0000
  H   H5        1.0  0.7171560494832522  0.4271615488928568  0.714147159449014  1.0000
  H   H6        1.0  0.2828439499660109  0.5728384513214508  0.28585284077709744  1.0000
  H   H7        1.0  0.9163675085016405  0.5639110345040654  0.7469649897352292  1.0000
  H   H8        1.0  0.08363249094762248  0.4360889657102422  0.2530350104908822  1.0000
  H   H9        1.0  0.9171931850140331  0.3636551430529849  0.6855843802328537  1.0000
  H   H10       1.0  0.08280681443522982  0.6363448571613227  0.31441561999325773  1.0000
  H   H11       1.0  0.8088257208111148  0.06862145785145775  0.08194290593951498  1.0000
  H   H12       1.0  0.1911742786381483  0.9313785423628499  0.9180570942865963  1.0000
  H   H13       1.0  0.8382951617629549  0.2645043995820066  0.08886719315124098  1.0000
  H   H14       1.0  0.16170483902246524  0.7354956006428734  0.9111328064057572  1.0000
  H   H15       1.0  0.6171380538019791  0.16019174937061703  0.06416114695579875  1.0000
  H   H16       1.0  0.3828619453856227  0.839808249709894  0.9358388520774589  1.0000
  H   H17       1.0  0.5210565364339812  0.7613144474271625  0.44669791793266245  1.0000
  H   H18       1.0  0.4789434640844862  0.2386855516548176  0.5533020813070695  1.0000
  H   H19       1.0  0.5726749407919395  0.7168917925142949  0.29549397321791127  1.0000
  H   H20       1.0  0.4273250599934805  0.2831082077105851  0.7045060263390869  1.0000
  H   H21       1.0  0.7421780699007693  0.8280451511995052  0.4394646408747524  1.0000
  H   H22       1.0  0.2578219295484937  0.17195484901480249  0.560535359351359  1.0000
  C   C1        1.0  0.8021945205871658  0.3450533831023527  0.4503205441652638  1.0000
  C   C2        1.0  0.19780548019296307  0.654946617113424  0.5496794562673217  1.0000
  C   C3        1.0  0.752848769965013  0.3522350584126467  0.327318151577062  1.0000
  C   C4        1.0  0.2471512292225885  0.6477649406678644  0.6726818474561956  1.0000
  C   C5        1.0  0.6822900161506446  0.476317873796727  0.29842452782543905  1.0000
  C   C6        1.0  0.3177099832986185  0.5236821264175804  0.7015754724006724  1.0000
  C   C7        1.0  0.8534950831053401  0.1407804740381111  0.32631489289347915  1.0000
  C   C8        1.0  0.14650491607697028  0.8592195250332967  0.6736851070153661  1.0000
  C   C9        1.0  0.7195912210065982  0.5840695936924903  0.5337703854127197  1.0000
  C   C10       1.0  0.2804087784426648  0.41593040652181723  0.46622961481339154  1.0000
  C   C11       1.0  0.8376830799984923  0.45248864285717166  0.6827748158192797  1.0000
  C   C12       1.0  0.16231691945077067  0.547511357357136  0.31722518440683173  1.0000
  C   C13       1.0  0.7610885232683342  0.1752824825329687  0.11240585151388155  1.0000
  C   C14       1.0  0.23891147618622008  0.8247175176904422  0.8875941478366424  1.0000
  C   C15       1.0  0.62437784659979  0.7333300307572954  0.39692301653204304  1.0000
  C   C16       1.0  0.37562215284947303  0.2666699694570122  0.6030769836940683  1.0000
  N   N1        1.0  0.6780184136752734  0.5915818355407878  0.4096983046195416  1.0000
  N   N2        1.0  0.32198158577928104  0.40841816468262315  0.5903016947309823  1.0000
  N   N3        1.0  0.788048114560836  0.21981565962404037  0.25003624258311036  1.0000
  N   N4        1.0  0.21195188595234007  0.7801843394488366  0.7499637575322091  1.0000
  N   N5        1.0  0.8647158614311159  0.21404867817775655  0.4493353782505149  1.0000
  N   N6        1.0  0.13528413801814707  0.785951322036551  0.5506646219755964  1.0000
  N   N7        1.0  0.786809807569543  0.4581067664528637  0.5527036679137858  1.0000
  N   N8        1.0  0.21319019188501134  0.5418932337705472  0.44729633143673814  1.0000
  O   O1        1.0  0.698452351965031  0.684960369105068  0.624536863272394  1.0000
  O   O2        1.0  0.30154764855343646  0.3150396299769121  0.375463135967338  1.0000
  O   O3        1.0  0.6299184778774065  0.4878394631755352  0.1903165319570081  1.0000
  O   O4        1.0  0.37008152263576954  0.5121605358973417  0.8096834681583114  1.0000
  F   F1        1.0  0.8853137499813797  0.6887857700228696  0.1295602349680468  1.0000
  F   F2        1.0  0.1146862505317964  0.3112142290500073  0.8704397651472725  1.0000
  F   F3        1.0  0.7513299705812632  0.7109592139764499  0.9255751373022947  1.0000
  F   F4        1.0  0.2486700301988655  0.2890407862393268  0.07442486313029091  1.0000
  F   F5        1.0  0.6425288140863683  0.806876156075004  0.0981881582053414  1.0000
  F   F6        1.0  0.35747118536818595  0.1931238441484069  0.9018118411451825  1.0000
  F   F7        1.0  0.772686639539251  0.47822880360644066  0.9519070480750873  1.0000
  F   F8        1.0  0.22731336097921634  0.5217711954755396  0.04809295116464464  1.0000
  F   F9        1.0  0.7241332365432909  0.1682184649561835  0.8062200342198907  1.0000
  F   F10       1.0  0.27586676290597223  0.8317815352581241  0.19377996600622055  1.0000
  F   F11       1.0  0.601606069766809  0.9243697903779938  0.8161544102047666  1.0000
  F   F12       1.0  0.398393929682454  0.07563020983631372  0.18384559002134465  1.0000
  F   F13       1.0  0.9077694054977358  0.007011945180705323  0.8584621324215206  1.0000
  F   F14       1.0  0.09223059395152718  0.9929880550336023  0.1415378678045908  1.0000
  F   F15       1.0  0.5174473573452277  0.9884776572766334  0.6344435472575404  1.0000
  F   F16       1.0  0.48255264210932663  0.011522342946777574  0.3655564520929835  1.0000
  F   F17       1.0  0.9314779623686942  0.09806877573923652  0.6184854185275825  1.0000
  F   F18       1.0  0.06852203708586022  0.9019312244841744  0.3815145808229413  1.0000
  S   S1        1.0  0.6972091976291633  0.635599845694013  0.023961130952402817  1.0000
  S   S2        1.0  0.3027908018200996  0.3644001545202946  0.9760388692737085  1.0000
  S   S3        1.0  0.717855190408175  0.992327639114075  0.7383296417093214  1.0000
  S   S4        1.0  0.2821448090410881  0.00767236110023274  0.26167035851679  1.0000
