data_image0
_chemical_formula_structural       H40C16O8F16S4
_chemical_formula_sum              "H40 C16 O8 F16 S4"
_cell_length_a       4.606001203699892
_cell_length_b       13.237933782946703
_cell_length_c       13.166917348501894
_cell_angle_alpha    90.0
_cell_angle_beta     90.0
_cell_angle_gamma    90.0

_space_group_name_H-M_alt    "P 1"
_space_group_IT_number       1

loop_
  _space_group_symop_operation_xyz
  'x, y, z'

loop_
  _atom_site_type_symbol
  _atom_site_label
  _atom_site_symmetry_multiplicity
  _atom_site_fract_x
  _atom_site_fract_y
  _atom_site_fract_z
  _atom_site_occupancy
  H   H1        1.0  0.06887348829721876  0.4501445790336593  0.3480052102340681  1.0000
  H   H2        1.0  0.9311265108995048  0.5498554207437454  0.8480052099112174  1.0000
  H   H3        1.0  0.9311265108995048  0.9501445789223617  0.15199479020256054  1.0000
  H   H4        1.0  0.06887348829721876  0.049855420855043055  0.6519947898797099  1.0000
  H   H5        1.0  0.9311265108995048  0.5498554207437454  0.6519947898797099  1.0000
  H   H6        1.0  0.06887348829721876  0.4501445790336593  0.15199479020256054  1.0000
  H   H7        1.0  0.06887348829721876  0.049855420855043055  0.8480052099112174  1.0000
  H   H8        1.0  0.9311265108995048  0.9501445789223617  0.3480052102340681  1.0000
  H   H9        1.0  0.4575803102932327  0.4445119832507695  0.34211729828413695  1.0000
  H   H10       1.0  0.5424196910745716  0.5554880165266353  0.8421172987207656  1.0000
  H   H11       1.0  0.5424196910745716  0.9445119838948767  0.15788270139301247  1.0000
  H   H12       1.0  0.4575803102932327  0.05548801663793285  0.6578827018296411  1.0000
  H   H13       1.0  0.5424196910745716  0.5554880165266353  0.6578827018296411  1.0000
  H   H14       1.0  0.4575803102932327  0.4445119832507695  0.15788270139301247  1.0000
  H   H15       1.0  0.4575803102932327  0.05548801663793285  0.8421172987207656  1.0000
  H   H16       1.0  0.5424196910745716  0.9445119838948767  0.34211729828413695  1.0000
  H   H17       1.0  0.28316043403382896  0.4791092533013266  0.45832540223901536  1.0000
  H   H18       1.0  0.7168395651628947  0.5208907464760781  0.958325402675644  1.0000
  H   H19       1.0  0.7168395651628947  0.979109253190029  0.041674597438134064  1.0000
  H   H20       1.0  0.28316043403382896  0.020890746587375754  0.5416745978747627  1.0000
  H   H21       1.0  0.7168395651628947  0.5208907464760781  0.5416745978747627  1.0000
  H   H22       1.0  0.28316043403382896  0.4791092533013266  0.041674597438134064  1.0000
  H   H23       1.0  0.28316043403382896  0.020890746587375754  0.958325402675644  1.0000
  H   H24       1.0  0.7168395651628947  0.979109253190029  0.45832540223901536  1.0000
  H   H25       1.0  0.8254610022563355  0.3217950874998081  0.4475321659606567  1.0000
  H   H26       1.0  0.1745389991114689  0.6782049122775966  0.9475321656378062  1.0000
  H   H27       1.0  0.1745389991114689  0.8217950873885104  0.052467833716492676  1.0000
  H   H28       1.0  0.8254610022563355  0.17820491238889422  0.5524678341531213  1.0000
  H   H29       1.0  0.1745389991114689  0.6782049122775966  0.5524678341531213  1.0000
  H   H30       1.0  0.8254610022563355  0.3217950874998081  0.052467833716492676  1.0000
  H   H31       1.0  0.8254610022563355  0.17820491238889422  0.9475321656378062  1.0000
  H   H32       1.0  0.1745389991114689  0.8217950873885104  0.4475321659606567  1.0000
  H   H33       1.0  0.05116769613752707  0.352826701400853  0.5535984093368179  1.0000
  H   H34       1.0  0.9488323030591965  0.6471732991319566  0.053598408900189236  1.0000
  H   H35       1.0  0.9488323030591965  0.8528267012895553  0.9464015904541095  1.0000
  H   H36       1.0  0.05116769613752707  0.14717329924325429  0.4464015907769602  1.0000
  H   H37       1.0  0.9488323030591965  0.6471732991319566  0.4464015907769602  1.0000
  H   H38       1.0  0.05116769613752707  0.352826701400853  0.9464015904541095  1.0000
  H   H39       1.0  0.05116769613752707  0.14717329924325429  0.053598408900189236  1.0000
  H   H40       1.0  0.9488323030591965  0.8528267012895553  0.5535984093368179  1.0000
  C   C1        1.0  0.2680555595617785  0.4308426506368606  0.39030251531006344  1.0000
  C   C2        1.0  0.7319444418060258  0.5691573491405442  0.8903025157466922  1.0000
  C   C3        1.0  0.7319444418060258  0.9308426505255629  0.109697484367086  1.0000
  C   C4        1.0  0.2680555595617785  0.06915734925184178  0.6096974840442354  1.0000
  C   C5        1.0  0.7319444418060258  0.5691573491405442  0.6096974840442354  1.0000
  C   C6        1.0  0.2680555595617785  0.4308426506368606  0.109697484367086  1.0000
  C   C7        1.0  0.2680555595617785  0.06915734925184178  0.8903025157466922  1.0000
  C   C8        1.0  0.7319444418060258  0.9308426505255629  0.39030251531006344  1.0000
  C   C9        1.0  0.03373726647643421  0.3048674465496266  0.4853088267260251  1.0000
  C   C10       1.0  0.9662627327202894  0.6951325532277781  0.9853088264031745  1.0000
  C   C11       1.0  0.9662627327202894  0.8048674471937338  0.014691173710603488  1.0000
  C   C12       1.0  0.03373726647643421  0.19513255333907573  0.5146911733877529  1.0000
  C   C13       1.0  0.9662627327202894  0.6951325532277781  0.5146911733877529  1.0000
  C   C14       1.0  0.03373726647643421  0.3048674465496266  0.014691173710603488  1.0000
  C   C15       1.0  0.03373726647643421  0.19513255333907573  0.9853088264031745  1.0000
  C   C16       1.0  0.9662627327202894  0.8048674471937338  0.4853088267260251  1.0000
  O   O1        1.0  0.2715664227345911  0.3269874144238592  0.41858016604221165  1.0000
  O   O2        1.0  0.7284335764621327  0.6730125861089503  0.9185801657193611  1.0000
  O   O3        1.0  0.7284335764621327  0.8269874143125616  0.08141983439441698  1.0000
  O   O4        1.0  0.2715664227345911  0.173012586220248  0.5814198340715664  1.0000
  O   O5        1.0  0.7284335764621327  0.6730125861089503  0.5814198340715664  1.0000
  O   O6        1.0  0.2715664227345911  0.3269874144238592  0.08141983439441698  1.0000
  O   O7        1.0  0.2715664227345911  0.173012586220248  0.9185801657193611  1.0000
  O   O8        1.0  0.7284335764621327  0.8269874143125616  0.41858016604221165  1.0000
  F   F1        1.0  0.581974372444097  0.15530109106969517  0.15944980016441532  1.0000
  F   F2        1.0  0.4180256267526266  0.8446989094631144  0.6594497998415647  1.0000
  F   F3        1.0  0.4180256267526266  0.6553010909583975  0.34055020027221333  1.0000
  F   F4        1.0  0.581974372444097  0.3446989088190072  0.8405501999493628  1.0000
  F   F5        1.0  0.4180256267526266  0.8446989094631144  0.8405501999493628  1.0000
  F   F6        1.0  0.581974372444097  0.15530109106969517  0.34055020027221333  1.0000
  F   F7        1.0  0.581974372444097  0.3446989088190072  0.6594497998415647  1.0000
  F   F8        1.0  0.4180256267526266  0.6553010909583975  0.15944980016441532  1.0000
  F   F9        1.0  0.7070201908293254  0.2975023998891275  0.2500000002183143  1.0000
  F   F10       1.0  0.2929798105384789  0.7024975998882772  0.7499999998954637  1.0000
  F   F11       1.0  0.2929798105384789  0.7975023997778298  0.2500000002183143  1.0000
  F   F12       1.0  0.7070201908293254  0.20249759999957487  0.7499999998954637  1.0000
  F   F13       1.0  0.17208554339136997  0.11605115761940545  0.2500000002183143  1.0000
  F   F14       1.0  0.8279144558053537  0.883948842913404  0.7499999998954637  1.0000
  F   F15       1.0  0.8279144558053537  0.6160511575081078  0.2500000002183143  1.0000
  F   F16       1.0  0.17208554339136997  0.3839488422692969  0.7499999998954637  1.0000
  S   S1        1.0  0.42377523011328727  0.21318177415537856  0.2500000002183143  1.0000
  S   S2        1.0  0.576224771254517  0.7868182263774309  0.7499999998954637  1.0000
  S   S3        1.0  0.576224771254517  0.7131817740440809  0.2500000002183143  1.0000
  S   S4        1.0  0.42377523011328727  0.2868182257333238  0.7499999998954637  1.0000
