data_image0
_chemical_formula_structural       H64C32O8F32S8
_chemical_formula_sum              "H64 C32 O8 F32 S8"
_cell_length_a       10.986881431112742
_cell_length_b       10.566080679448373
_cell_length_c       12.12565067243563
_cell_angle_alpha    90.0
_cell_angle_beta     96.0559066503006
_cell_angle_gamma    90.0

_space_group_name_H-M_alt    "P 1"
_space_group_IT_number       1

loop_
  _space_group_symop_operation_xyz
  'x, y, z'

loop_
  _atom_site_type_symbol
  _atom_site_label
  _atom_site_symmetry_multiplicity
  _atom_site_fract_x
  _atom_site_fract_y
  _atom_site_fract_z
  _atom_site_occupancy
  H   H1        1.0  0.5031578823975503  0.08282884984043967  0.1794346142010599  1.0000
  H   H2        1.0  0.996842117721363  0.5828288498665434  0.3205653861733587  1.0000
  H   H3        1.0  0.49684211760207786  0.9171711502117678  0.8205653863865944  1.0000
  H   H4        1.0  0.003157882286156595  0.41717115018566403  0.6794346135903826  1.0000
  H   H5        1.0  0.6335706271144369  0.9824908426254767  0.20994230953442633  1.0000
  H   H6        1.0  0.8664293730044764  0.4824908425993729  0.2900576908399923  1.0000
  H   H7        1.0  0.36642937289308264  0.017509157426730773  0.7900576902293149  1.0000
  H   H8        1.0  0.1335706269951518  0.5175091565064098  0.709942309747662  1.0000
  H   H9        1.0  0.7107569794374684  0.027749281772028577  0.040784674552285814  1.0000
  H   H10       1.0  0.7892430197661947  0.5277492817981323  0.45921532572753276  1.0000
  H   H11       1.0  0.28924302057005125  0.972250718280179  0.9592153252114554  1.0000
  H   H12       1.0  0.2107569802334334  0.4722507182540751  0.5407846748601215  1.0000
  H   H13       1.0  0.5593318996946525  0.07714254270132584  0.9942946611830409  1.0000
  H   H14       1.0  0.940668100774252  0.5771425427274296  0.505705338509871  1.0000
  H   H15       1.0  0.44066810031286713  0.9228574573508815  0.0057053385807003185  1.0000
  H   H16       1.0  0.0593318992332676  0.4228574573247779  0.4942946612538702  1.0000
  H   H17       1.0  0.7463645848800187  0.24856347870865533  0.9960784221171433  1.0000
  H   H18       1.0  0.7536354155888857  0.7485634777883343  0.5039215775757687  1.0000
  H   H19       1.0  0.253635415127501  0.7514365213435521  0.00392157764659802  1.0000
  H   H20       1.0  0.24636458441863376  0.25143652131744837  0.4960784221879726  1.0000
  H   H21       1.0  0.6036999410323491  0.2955553582014705  0.038876810460167006  1.0000
  H   H22       1.0  0.8963000590944556  0.7955553582275743  0.4611231890903386  1.0000
  H   H23       1.0  0.3963000589751705  0.704444641850737  0.9611231893035742  1.0000
  H   H24       1.0  0.10369994091306395  0.2044446418246333  0.5388768106734027  1.0000
  H   H25       1.0  0.7397404320908434  0.34506296332675235  0.2052447318347976  1.0000
  H   H26       1.0  0.7602595680280702  0.845062963352856  0.29475526853962103  1.0000
  H   H27       1.0  0.2602595679087849  0.6549370367254551  0.7947552687528567  1.0000
  H   H28       1.0  0.23974043197944953  0.15493703669935138  0.7052447312241202  1.0000
  H   H29       1.0  0.832421786154003  0.2085235961036621  0.1863730684642898  1.0000
  H   H30       1.0  0.6675782139649103  0.7085235961297659  0.3136269319101288  1.0000
  H   H31       1.0  0.16757821385351657  0.7914764039485453  0.8136269312994514  1.0000
  H   H32       1.0  0.3324217860347179  0.2914764039224416  0.6863730686775255  1.0000
  H   H33       1.0  0.608548871362454  0.05421579840046299  0.6249221412374447  1.0000
  H   H34       1.0  0.8914511291064506  0.5542157984265668  0.8750778584554673  1.0000
  H   H35       1.0  0.39145112864506565  0.9457842016517444  0.37507785852629655  1.0000
  H   H36       1.0  0.10854887090106906  0.44578420162564075  0.12492214130827403  1.0000
  H   H37       1.0  0.4826945005427087  0.16141612313422554  0.612937241436337  1.0000
  H   H38       1.0  0.01730549934552576  0.6614161231603293  0.88706275854064  1.0000
  H   H39       1.0  0.5173054994648109  0.838583876917982  0.3870627583274043  1.0000
  H   H40       1.0  0.9826945006541025  0.3385838768918782  0.11293724204701434  1.0000
  H   H41       1.0  0.6968242587194364  0.15027539143141352  0.7970842397558009  1.0000
  H   H42       1.0  0.8031757417494682  0.6502753914575172  0.7029157599371111  1.0000
  H   H43       1.0  0.3031757412880833  0.8497246086207939  0.20291576000794043  1.0000
  H   H44       1.0  0.19682425825805147  0.3497246085946902  0.2970842398266301  1.0000
  H   H45       1.0  0.539315339496367  0.17556086843138172  0.8119520710066894  1.0000
  H   H46       1.0  0.9606846600572873  0.6755608684574854  0.6880479285916226  1.0000
  H   H47       1.0  0.46068466051115264  0.8244391316208257  0.18804792875705187  1.0000
  H   H48       1.0  0.03931533995023229  0.324439131594722  0.3119520711721188  1.0000
  H   H49       1.0  0.5445580690900504  0.38786460602853895  0.7323876821938337  1.0000
  H   H50       1.0  0.9554419304636039  0.8878646060546427  0.7676123174044781  1.0000
  H   H51       1.0  0.45544193091746915  0.6121353940236685  0.2676123175699076  1.0000
  H   H52       1.0  0.044558068628665556  0.11213539399756477  0.23238768226466297  1.0000
  H   H53       1.0  0.6874144954000403  0.381475606923951  0.8162869684760671  1.0000
  H   H54       1.0  0.8125855041457227  0.8814756069500548  0.6837130319461577  1.0000
  H   H55       1.0  0.3125855046074794  0.6185243931282565  0.1837130312876741  1.0000
  H   H56       1.0  0.18741449585390546  0.11852439310215274  0.3162869686414966  1.0000
  H   H57       1.0  0.6794804738418371  0.4290187021586001  0.5912007065348492  1.0000
  H   H58       1.0  0.8205195266191762  0.9290187021847038  0.9087992939819756  1.0000
  H   H59       1.0  0.3205195261577911  0.5709812978936073  0.408799294052805  1.0000
  H   H60       1.0  0.17948047338834358  0.07098129786750362  0.09120070578176556  1.0000
  H   H61       1.0  0.7967085406860326  0.32931170370181745  0.6582871406596245  1.0000
  H   H62       1.0  0.7032914597749805  0.8293117037279211  0.8417128598572003  1.0000
  H   H63       1.0  0.2032914593214871  0.67068829635039  0.3417128591041168  1.0000
  H   H64       1.0  0.29670854022464765  0.17068829632428628  0.1582871407304538  1.0000
  C   C1        1.0  0.6021881714797533  0.07384851428569036  0.17431444655038736  1.0000
  C   C2        1.0  0.8978118286391601  0.5738485143117941  0.32568555382403125  1.0000
  C   C3        1.0  0.3978118285277663  0.9261514857665171  0.8256855532133538  1.0000
  C   C4        1.0  0.10218817136046822  0.4261514857404134  0.6743144467636231  1.0000
  C   C5        1.0  0.6371990744873655  0.09321640160440463  0.056611601470067344  1.0000
  C   C6        1.0  0.8628009247162979  0.5932164016305084  0.44338839880975117  1.0000
  C   C7        1.0  0.3628009255122628  0.9067835984478029  0.9433883991175869  1.0000
  C   C8        1.0  0.13719907529122183  0.4067835984216991  0.55661160095399  1.0000
  C   C9        1.0  0.6811886867232266  0.2307189765020109  0.05653299966085719  1.0000
  C   C10       1.0  0.8188113133956867  0.7307189765281146  0.4434670007135615  1.0000
  C   C11       1.0  0.3188113132842929  0.7692810235501966  0.9434670001028841  1.0000
  C   C12       1.0  0.18118868660394155  0.2692810235240929  0.5565329998740928  1.0000
  C   C13       1.0  0.7389264139919527  0.24754681980495286  0.17475175806107776  1.0000
  C   C14       1.0  0.7610735861269609  0.7475468198310566  0.3252482423133408  1.0000
  C   C15       1.0  0.261073586015567  0.7524531802472546  0.8252482417026635  1.0000
  C   C16       1.0  0.23892641387266744  0.2524531802211509  0.6747517582743133  1.0000
  C   C17       1.0  0.5808751508351969  0.1516375739129457  0.640706288299389  1.0000
  C   C18       1.0  0.9191248496337076  0.6516375739390494  0.8592937113935228  1.0000
  C   C19       1.0  0.41912484917232273  0.8483624261392618  0.35929371146435224  1.0000
  C   C20       1.0  0.080875150373812  0.34836242611315804  0.14070628837021837  1.0000
  C   C21       1.0  0.6124622707698405  0.19595241346463887  0.7597176219900371  1.0000
  C   C22       1.0  0.8875377287759224  0.6959524134907427  0.7402823784321878  1.0000
  C   C23       1.0  0.38753772923767915  0.8040475865875686  0.2402823777737042  1.0000
  C   C24       1.0  0.11246227122370572  0.30404758656146486  0.25971762215546645  1.0000
  C   C25       1.0  0.6327036647625975  0.33825572115417457  0.7452841606894374  1.0000
  C   C26       1.0  0.8672963347910568  0.8382557211802784  0.7547158389088744  1.0000
  C   C27       1.0  0.36729633524492206  0.6617442788980329  0.2547158390743039  1.0000
  C   C28       1.0  0.13270366521646285  0.16174427887192916  0.24528416085486676  1.0000
  C   C29       1.0  0.6972088380432118  0.34264691893200777  0.6403719037859168  1.0000
  C   C30       1.0  0.8027911615025511  0.8426469189581114  0.8596280966363079  1.0000
  C   C31       1.0  0.3027911619564164  0.6573530811201996  0.35962809680173735  1.0000
  C   C32       1.0  0.19720883850496848  0.15735308109409593  0.1403719031274333  1.0000
  O   O1        1.0  0.662205281472087  0.1747453862993212  0.24222821652006019  1.0000
  O   O2        1.0  0.8377947186547178  0.6747453863254249  0.25777178303044546  1.0000
  O   O3        1.0  0.33779471853543264  0.8252546137528862  0.7577717832436811  1.0000
  O   O4        1.0  0.16220528135280182  0.3252546137267825  0.7422282167332958  1.0000
  O   O5        1.0  0.64771199836122  0.23626511340724785  0.5727032436912494  1.0000
  O   O6        1.0  0.852288001184543  0.7362651134333517  0.9272967567309754  1.0000
  O   O7        1.0  0.35228800163840823  0.7637348856985349  0.4272967568964049  1.0000
  O   O8        1.0  0.14771199881508523  0.26373488661885586  0.07270324385667877  1.0000
  F   F1        1.0  0.8758122582127813  0.05467449733974206  0.36344568612887673  1.0000
  F   F2        1.0  0.6241877419140236  0.5546744973658457  0.13655431342162885  1.0000
  F   F3        1.0  0.12418774179473832  0.9453255027124654  0.6365543136348645  1.0000
  F   F4        1.0  0.3758122580934961  0.4453255026863617  0.8634456863421123  1.0000
  F   F5        1.0  0.8661241690492701  0.0872934949090464  0.554827599480194  1.0000
  F   F6        1.0  0.6338758304964929  0.5872934949351502  0.9451724009420307  1.0000
  F   F7        1.0  0.13387583095824956  0.9127065051431611  0.4451724002835472  1.0000
  F   F8        1.0  0.3661241695031353  0.41270650511705737  0.054827599645623476  1.0000
  F   F9        1.0  0.8870203577950153  0.258264613226715  0.4380816315644701  1.0000
  F   F10       1.0  0.6129796423238981  0.7582646132528188  0.06191836880994855  1.0000
  F   F11       1.0  0.1129796422046129  0.7417353868254924  0.5619183690231841  1.0000
  F   F12       1.0  0.38702035768362153  0.2417353867993887  0.9380816309537927  1.0000
  F   F13       1.0  0.704654835591406  0.9937965456220809  0.4480213969283174  1.0000
  F   F14       1.0  0.7953451645353987  0.4937965455959771  0.051978602622188244  1.0000
  F   F15       1.0  0.29534516441611364  0.0062034544301266875  0.5519786028354239  1.0000
  F   F16       1.0  0.20465483547212085  0.5062034544562305  0.948021397141553  1.0000
  F   F17       1.0  0.4493760222573315  0.34343448248110936  0.2610029890135015  1.0000
  F   F18       1.0  0.05062397728880328  0.8434344825072131  0.23899701082106908  1.0000
  F   F19       1.0  0.5506239777501882  0.656565517571098  0.7389970107502397  1.0000
  F   F20       1.0  0.9493760227187164  0.15656551754499437  0.7610029889426722  1.0000
  F   F21       1.0  0.44259489176855304  0.37498366141634  0.4543412395942701  1.0000
  F   F22       1.0  0.05740510777758164  0.8749836614424438  0.045658760240300474  1.0000
  F   F23       1.0  0.5574051082389665  0.6250163386358675  0.5456587601694711  1.0000
  F   F24       1.0  0.9425948922299381  0.12501633860976372  0.9543412395234409  1.0000
  F   F25       1.0  0.6124315849923793  0.43281743616581525  0.36797112992811776  1.0000
  F   F26       1.0  0.8875684151265342  0.932817436191919  0.1320288704463009  1.0000
  F   F27       1.0  0.38756841501514033  0.5671825638863921  0.6320288698356236  1.0000
  F   F28       1.0  0.1124315848730941  0.06718256386028842  0.8679711301413534  1.0000
  F   F29       1.0  0.4227452566955402  0.17490213221582943  0.3766986290084626  1.0000
  F   F30       1.0  0.07725474285059448  0.6749021322419331  0.12330137082610793  1.0000
  F   F31       1.0  0.5772547433119795  0.825097867836378  0.6233013707552786  1.0000
  F   F32       1.0  0.9227452571569252  0.3250978678102743  0.8766986289376332  1.0000
  S   S1        1.0  0.7897391365164562  0.12845105968572418  0.4409476544358281  1.0000
  S   S2        1.0  0.7102608636103486  0.6284510597118279  0.05905234511467756  1.0000
  S   S3        1.0  0.21026086349106335  0.8715489403664832  0.5590523453279131  1.0000
  S   S4        1.0  0.2897391363971711  0.37154894034037955  0.9409476546490636  1.0000
  S   S5        1.0  0.5243359060378762  0.29889248017410347  0.37459740231149186  1.0000
  S   S6        1.0  0.9756640931736784  0.7988924802002071  0.12540259714441368  1.0000
  S   S7        1.0  0.47566409396964343  0.7011075198781039  0.6254025974522495  1.0000
  S   S8        1.0  0.024335906833841146  0.2011075198520003  0.8745974026193276  1.0000
