data_image0
_chemical_formula_structural       H18C28N6O2F8I4
_chemical_formula_sum              "H18 C28 N6 O2 F8 I4"
_cell_length_a       4.613800776342336
_cell_length_b       12.80770450100463
_cell_length_c       14.187443827237894
_cell_angle_alpha    104.27172389397315
_cell_angle_beta     97.16589256963063
_cell_angle_gamma    96.71341668383847

_space_group_name_H-M_alt    "P 1"
_space_group_IT_number       1

loop_
  _space_group_symop_operation_xyz
  'x, y, z'

loop_
  _atom_site_type_symbol
  _atom_site_label
  _atom_site_symmetry_multiplicity
  _atom_site_fract_x
  _atom_site_fract_y
  _atom_site_fract_z
  _atom_site_occupancy
  H   H1        1.0  0.8047901200658989  0.4395123762706776  0.09170454631152848  1.0000
  H   H2        1.0  0.1952098789132101  0.560487624126927  0.908295453935083  1.0000
  H   H3        1.0  0.027633415249552658  0.6143015216593566  0.11358431528078776  1.0000
  H   H4        1.0  0.9723665834679879  0.3856984779526979  0.8864156849679127  1.0000
  H   H5        1.0  0.6287887785446327  0.6425303430179259  0.23138096589069215  1.0000
  H   H6        1.0  0.37121122234252885  0.35746965659339686  0.7686190343646531  1.0000
  H   H7        1.0  0.373642726407224  0.7340675044781311  0.26289648251052083  1.0000
  H   H8        1.0  0.6263572744076112  0.26593249570045985  0.7371035170060366  1.0000
  H   H9        1.0  0.3920330376480934  0.8925172631508607  0.20419007387842747  1.0000
  H   H10       1.0  0.6079669635006368  0.10748273724601229  0.795809926374829  1.0000
  H   H11       1.0  0.5840717020622999  0.9975663588658575  0.09109748302402951  1.0000
  H   H12       1.0  0.41592829875253534  0.002433641312733331  0.9089025164925278  1.0000
  H   H13       1.0  0.8490728558634534  0.9029435126516852  0.9580085972431047  1.0000
  H   H14       1.0  0.15092714311565553  0.09705648774591938  0.041991403003506775  1.0000
  H   H15       1.0  0.9028568645542109  0.7181979477727946  0.8583366841634027  1.0000
  H   H16       1.0  0.09714313626062437  0.2818020524057963  0.14166331535315482  1.0000
  H   H17       1.0  0.22124119118652788  0.7408447017173605  0.946727646737534  1.0000
  H   H18       1.0  0.7787588099622021  0.2591552986795124  0.05327235351572227  1.0000
  C   C1        1.0  0.8503660243915471  0.27414779744803025  0.4847617464608983  1.0000
  C   C2        1.0  0.14963397649561447  0.7258522021632925  0.5152382537944469  1.0000
  C   C3        1.0  0.8384530833701338  0.25034458770036044  0.381924815610657  1.0000
  C   C4        1.0  0.16154691527508036  0.749655412478962  0.6180751838992556  1.0000
  C   C5        1.0  0.9750928436807836  0.16420588202922362  0.33574723788183736  1.0000
  C   C6        1.0  0.024907157134051536  0.8357941181493671  0.66425276163472  1.0000
  C   C7        1.0  0.12923367074431194  0.10431376849827505  0.3888362698581301  1.0000
  C   C8        1.0  0.8707663304044181  0.895686231898598  0.6111637303951264  1.0000
  C   C9        1.0  0.1424156350885239  0.12897535584866804  0.49057442656007305  1.0000
  C   C10       1.0  0.8575843657986376  0.8710246437626549  0.5094255736952722  1.0000
  C   C11       1.0  0.9972340759847586  0.21158484821563678  0.5370738610442819  1.0000
  C   C12       1.0  0.002765922732781949  0.7884151513964176  0.4629261392044185  1.0000
  C   C13       1.0  0.2494677385924928  0.4878853368424385  0.13200780438530862  1.0000
  C   C14       1.0  0.7505322603866161  0.512114663555166  0.8679921958613029  1.0000
  C   C15       1.0  0.4522886927233609  0.6811205646682273  0.2010776377598335  1.0000
  C   C16       1.0  0.5477113059941796  0.3188794349438271  0.798922362488867  1.0000
  C   C17       1.0  0.5710536278740505  0.7490026665720673  0.13695304859588145  1.0000
  C   C18       1.0  0.42894637110505845  0.2509973338255372  0.8630469516507301  1.0000
  C   C19       1.0  0.5168102602579875  0.8559226049875712  0.14771112173720707  1.0000
  C   C20       1.0  0.4831897387211216  0.1440773954100334  0.8522888785094045  1.0000
  C   C21       1.0  0.6211827985479323  0.9136699911940321  0.08403086565544099  1.0000
  C   C22       1.0  0.378817200169608  0.08633000841802224  0.9159691345932595  1.0000
  C   C23       1.0  0.7704015689755059  0.8620293922263899  0.011070867650276466  1.0000
  C   C24       1.0  0.22959843191165555  0.13797060738493294  0.9889291326050688  1.0000
  C   C25       1.0  0.8201752554577489  0.7547475890617615  0.0058736705740450946  1.0000
  C   C26       1.0  0.17982474352136013  0.24525241133584316  0.9941263296725665  1.0000
  C   C27       1.0  0.990115534910982  0.7006329042619979  0.9278551650282123  1.0000
  C   C28       1.0  0.009884466237748229  0.2993670961348753  0.07214483522504406  1.0000
  N   N1        1.0  0.006041741982740033  0.4142704796508906  0.08441576810727522  1.0000
  N   N2        1.0  0.9939582567348003  0.5857295199611637  0.9155842321414253  1.0000
  N   N3        1.0  0.21623605537452853  0.594258186206954  0.1473504266736048  1.0000
  N   N4        1.0  0.7837639457742016  0.405741814189919  0.8526495735796515  1.0000
  N   N5        1.0  0.7257334077140936  0.7002017675278895  0.06833160181968112  1.0000
  N   N6        1.0  0.2742665934346366  0.2997982328689835  0.9316683984335753  1.0000
  O   O1        1.0  0.4911175132362555  0.4585680936587565  0.15995630160019633  1.0000
  O   O2        1.0  0.5088824879124748  0.5414319067381166  0.8400436986530601  1.0000
  F   F1        1.0  0.9648974778147065  0.13586064320423907  0.23655370814224366  1.0000
  F   F2        1.0  0.03510252307245498  0.8641393564070836  0.7634462921131016  1.0000
  F   F3        1.0  0.26397925510048303  0.022774018713777298  0.3426745793012809  1.0000
  F   F4        1.0  0.7360207438786259  0.9772259816838272  0.6573254209453306  1.0000
  F   F5        1.0  0.29405448554199054  0.07315789680350697  0.5436547547723354  1.0000
  F   F6        1.0  0.7059455131755499  0.9268421028085474  0.4563452454763651  1.0000
  F   F7        1.0  0.009454998372238593  0.2302277600150746  0.6357379717945244  1.0000
  F   F8        1.0  0.9905450024425967  0.7697722401635163  0.3642620277220331  1.0000
  I   I1        1.0  0.678123258646824  0.40565804544679857  0.5656449304811056  1.0000
  I   I2        1.0  0.32187674216801115  0.5943419547317922  0.4343550690354517  1.0000
  I   I3        1.0  0.6441777025966099  0.34060843607606484  0.29226716857903634  1.0000
  I   I4        1.0  0.35582229604860427  0.6593915641032576  0.7077328309308762  1.0000
