data_image0
_chemical_formula_structural       H18C22N6O2F4I2
_chemical_formula_sum              "H18 C22 N6 O2 F4 I2"
_cell_length_a       4.528362407974446
_cell_length_b       10.209161520025003
_cell_length_c       13.82675786617967
_cell_angle_alpha    80.00537020100668
_cell_angle_beta     84.56971850451775
_cell_angle_gamma    87.10922901600227

_space_group_name_H-M_alt    "P 1"
_space_group_IT_number       1

loop_
  _space_group_symop_operation_xyz
  'x, y, z'

loop_
  _atom_site_type_symbol
  _atom_site_label
  _atom_site_symmetry_multiplicity
  _atom_site_fract_x
  _atom_site_fract_y
  _atom_site_fract_z
  _atom_site_occupancy
  H   H1        1.0  0.6136096355445272  0.49138382696799543  0.37047419454904906  1.0000
  H   H2        1.0  0.38639036508891483  0.5086161725839726  0.6295258058765089  1.0000
  H   H3        1.0  0.7028484431271365  0.6609933758757804  0.44803224155581156  1.0000
  H   H4        1.0  0.29715155529900367  0.3390066236836872  0.5519677588637305  1.0000
  H   H5        1.0  0.3180226605420091  0.8776284388420309  0.445313220008713  1.0000
  H   H6        1.0  0.6819773378841311  0.12237156071743681  0.5546867804108291  1.0000
  H   H7        1.0  0.59261801909102  0.8294061563081886  0.5287318823091773  1.0000
  H   H8        1.0  0.4073819793351202  0.17059384325127921  0.4712681181103647  1.0000
  H   H9        1.0  0.12825094679120935  0.9891059884264314  0.5964885627214355  1.0000
  H   H10       1.0  0.8717490537451399  0.010894012106778187  0.4035114377019195  1.0000
  H   H11       1.0  0.730394301618977  0.9610128990524625  0.7357928718526786  1.0000
  H   H12       1.0  0.2696056992265823  0.03898710066546459  0.2642071278357112  1.0000
  H   H13       1.0  0.5332820286813384  0.733125218710796  0.7978827122753229  1.0000
  H   H14       1.0  0.4667179721642205  0.26687478100713113  0.20211728741306673  1.0000
  H   H15       1.0  0.9025576310157288  0.4333519547476777  0.7497358366158825  1.0000
  H   H16       1.0  0.09744236952062045  0.566648045785532  0.2502641638074724  1.0000
  H   H17       1.0  0.5615296799686221  0.502081585791108  0.7952046497991201  1.0000
  H   H18       1.0  0.43847032066481995  0.49791841376086016  0.2047953506264378  1.0000
  C   C1        1.0  0.6382199870985235  0.9302467992073399  0.08278585326291983  1.0000
  C   C2        1.0  0.3617800134378257  0.06975320132586965  0.917214147160435  1.0000
  C   C3        1.0  0.654570936608814  0.06800445750270841  0.05565407467124156  1.0000
  C   C4        1.0  0.3454290642367451  0.931995542215219  0.9443459250171482  1.0000
  C   C5        1.0  0.5173272716504629  0.13692103023514993  0.974963466949328  1.0000
  C   C6        1.0  0.48267272909800346  0.863078970464019  0.02503653273685875  1.0000
  C   C7        1.0  0.3071506128888771  0.6414593186463838  0.3940320454592826  1.0000
  C   C8        1.0  0.6928493855372633  0.3585406809130839  0.6059679549602593  1.0000
  C   C9        1.0  0.3926498201682475  0.796181959942715  0.5021182842129813  1.0000
  C   C10       1.0  0.6073501806773116  0.20381803977521212  0.4978817154754085  1.0000
  C   C11       1.0  0.15188390751638978  0.7786537395816501  0.5868843519634552  1.0000
  C   C12       1.0  0.8481160910247749  0.2213462611250184  0.41311564771671583  1.0000
  C   C13       1.0  0.04038760336268452  0.8912295541169115  0.6259107059612019  1.0000
  C   C14       1.0  0.9596123974828746  0.10877044560101562  0.3740892937271878  1.0000
  C   C15       1.0  0.8195698578499804  0.8755247036030214  0.7035757612370973  1.0000
  C   C16       1.0  0.18043014069118427  0.12447529710364717  0.2964242384430737  1.0000
  C   C17       1.0  0.7118216255534835  0.7488745468788409  0.7388897495022795  1.0000
  C   C18       1.0  0.28817837507995847  0.2511254526731271  0.2611102509232783  1.0000
  C   C19       1.0  0.8341206211680666  0.6421800592421468  0.6961306145679486  1.0000
  C   C20       1.0  0.16587937967749244  0.35781994047578014  0.30386938512044126  1.0000
  C   C21       1.0  0.7186263867013396  0.503778648143913  0.7292806905841397  1.0000
  C   C22       1.0  0.2813736119369178  0.49622135158151387  0.27071930909823433  1.0000
  N   N1        1.0  0.4252083084036104  0.5428517770781497  0.3468137666954779  1.0000
  N   N2        1.0  0.5747916924419487  0.45714822263977745  0.6531862329929119  1.0000
  N   N3        1.0  0.4777943727129566  0.6786181019389553  0.46017036784541826  1.0000
  N   N4        1.0  0.5222056281326025  0.3213818977789717  0.5398296318429715  1.0000
  N   N5        1.0  0.05358148303902217  0.6565472888953366  0.6222019844683354  1.0000
  N   N6        1.0  0.9464185178065371  0.34345271082259055  0.3777980152200543  1.0000
  O   O1        1.0  0.05670842536662131  0.6978022766767292  0.37846204263507277  1.0000
  O   O2        1.0  0.9432915754789378  0.30219772304119785  0.621537957053317  1.0000
  F   F1        1.0  0.8076650384883844  0.13797555591238328  0.10824366109628127  1.0000
  F   F2        1.0  0.19233496204796477  0.8620244446208262  0.8917563393270737  1.0000
  F   F3        1.0  0.5384901452185616  0.27089439168579793  0.9534685245406531  1.0000
  F   F4        1.0  0.4615098556269973  0.7291056080321293  0.04653147514773679  1.0000
  I   I1        1.0  0.8264940111279382  0.828336088472467  0.20852941109627374  1.0000
  I   I2        1.0  0.17350598751031918  0.17166391125296002  0.7914705885861002  1.0000
