data_image0
_chemical_formula_structural       H60C64N12O32S4
_chemical_formula_sum              "H60 C64 N12 O32 S4"
_cell_length_a       9.371121068307811
_cell_length_b       7.723324749579935
_cell_length_c       24.137097972217806
_cell_angle_alpha    90.0
_cell_angle_beta     95.38460509187485
_cell_angle_gamma    90.0

_space_group_name_H-M_alt    "P 1"
_space_group_IT_number       1

loop_
  _space_group_symop_operation_xyz
  'x, y, z'

loop_
  _atom_site_type_symbol
  _atom_site_label
  _atom_site_symmetry_multiplicity
  _atom_site_fract_x
  _atom_site_fract_y
  _atom_site_fract_z
  _atom_site_occupancy
  H   H1        1.0  0.6983927245275527  0.2275293409221951  0.8356707500649004  1.0000
  H   H2        1.0  0.8016072749861811  0.7275293415967793  0.6643292500012759  1.0000
  H   H3        1.0  0.30160727550619165  0.7724706591321941  0.16432925013010855  1.0000
  H   H4        1.0  0.19839272504756325  0.2724706584576099  0.33567075019373327  1.0000
  H   H5        1.0  0.5179951951228539  0.18683616535462705  0.8521361756726044  1.0000
  H   H6        1.0  0.9820048054627164  0.686836164734432  0.6478638244318768  1.0000
  H   H7        1.0  0.48200480491089054  0.8131638346997623  0.1478638245224047  1.0000
  H   H8        1.0  0.017995194569098916  0.3131638353199572  0.3521361753487627  1.0000
  H   H9        1.0  0.6622996842681572  0.046801977350448706  0.8794106926187161  1.0000
  H   H10       1.0  0.8377003152455766  0.5468019767302537  0.6205893074474604  1.0000
  H   H11       1.0  0.3377003157655871  0.9531980227039405  0.12058930757629303  1.0000
  H   H12       1.0  0.16229968478816778  0.4531980233241355  0.3794106927475488  1.0000
  H   H13       1.0  0.6060517183703859  0.07420934359016469  0.9795376107110725  1.0000
  H   H14       1.0  0.893948281143348  0.5742093429699697  0.520462389355104  1.0000
  H   H15       1.0  0.3939482816633585  0.9257906564642245  0.02046238948393668  1.0000
  H   H16       1.0  0.10605171889039637  0.4257906570844195  0.47953761083990515  1.0000
  H   H17       1.0  0.4438435742417417  0.18980848889977495  0.9538184765081489  1.0000
  H   H18       1.0  0.056156425870233416  0.68980848827958  0.5461815234987112  1.0000
  H   H19       1.0  0.5561564257900736  0.8101915111546143  0.046181523272490525  1.0000
  H   H20       1.0  0.9438435741635108  0.31019151177480925  0.45381847669629805  1.0000
  H   H21       1.0  0.5557261665380453  0.27649183729017024  0.010806866566008365  1.0000
  H   H22       1.0  0.9442738334174686  0.7764918366699752  0.48919313381714974  1.0000
  H   H23       1.0  0.44427383349569916  0.723508162764219  0.9891931336290007  1.0000
  H   H24       1.0  0.05572616661627592  0.22350816338441395  0.5108068663778593  1.0000
  H   H25       1.0  0.9090075472476158  0.17178456856578  0.9279722025822369  1.0000
  H   H26       1.0  0.5909924533379545  0.6717845692403641  0.5720277975222443  1.0000
  H   H27       1.0  0.09099245278612868  0.8282154314886092  0.07202779761277223  1.0000
  H   H28       1.0  0.40900754669386086  0.32821543081402504  0.42797220225839516  1.0000
  H   H29       1.0  0.36458190611592706  0.9165748715130775  0.9174477596015237  1.0000
  H   H30       1.0  0.13541809399604807  0.4165748721332725  0.5825522404053363  1.0000
  H   H31       1.0  0.6354180939158882  0.0834251285413117  0.08255224017911567  1.0000
  H   H32       1.0  0.8645819060376964  0.5834251279211168  0.41744775978967286  1.0000
  H   H33       1.0  0.4711071262808674  0.7523677779205185  0.8432948087332861  1.0000
  H   H34       1.0  0.02889287383110765  0.2523677772459343  0.6567051912735741  1.0000
  H   H35       1.0  0.528892873752877  0.24763222213387076  0.15670519146172301  1.0000
  H   H36       1.0  0.9711071262007075  0.747632222808455  0.3432948085070655  1.0000
  H   H37       1.0  0.3290232368114173  0.7007455785533762  0.7522438027686119  1.0000
  H   H38       1.0  0.17097676330055775  0.20074557787879194  0.7477561972382483  1.0000
  H   H39       1.0  0.670976763222327  0.29925442150101306  0.24775619742639735  1.0000
  H   H40       1.0  0.8290232367312576  0.7992544221755973  0.2522438025423912  1.0000
  H   H41       1.0  0.08291479203279564  0.8236681113721128  0.7349874357415696  1.0000
  H   H42       1.0  0.4170852080791795  0.3236681119923077  0.7650125642652906  1.0000
  H   H43       1.0  0.9170852079990195  0.1763318886822765  0.2650125640390699  1.0000
  H   H44       1.0  0.582914791954565  0.6763318880620814  0.2349874359297186  1.0000
  H   H45       1.0  0.97623989620896  0.9862886757952662  0.809478802393859  1.0000
  H   H46       1.0  0.5237601033047738  0.4862886751206821  0.6905211976723175  1.0000
  H   H47       1.0  0.023760103822855164  0.013711324259122946  0.19052119738678056  1.0000
  H   H48       1.0  0.47623989672897055  0.5137113249337071  0.3094788025226916  1.0000
  H   H49       1.0  0.9026482007065417  0.35969790473346297  0.0290510501133263  1.0000
  H   H50       1.0  0.5973517992470427  0.859697904113268  0.47094894985546215  1.0000
  H   H51       1.0  0.09735179932527345  0.6403020953209263  0.9709489496673132  1.0000
  H   H52       1.0  0.40264820078670166  0.14030209594112122  0.5290510503395469  1.0000
  H   H53       1.0  0.9121817699693795  0.5924695371962543  0.1922470259831749  1.0000
  H   H54       1.0  0.5878182299842052  0.09246953781644923  0.3077529739856137  1.0000
  H   H55       1.0  0.08781823006243582  0.407530462858135  0.8077529737974647  1.0000
  H   H56       1.0  0.41218177004953926  0.90753046223794  0.6922470262093955  1.0000
  H   H57       1.0  0.28158412375246233  0.3137544941550978  0.14505778107043704  1.0000
  H   H58       1.0  0.21841587572752716  0.8137544935349029  0.3549422188007303  1.0000
  H   H59       1.0  0.7184158762793529  0.6862455058992913  0.8549422187102025  1.0000
  H   H60       1.0  0.781584124304288  0.18624550651948638  0.6450577809799092  1.0000
  C   C1        1.0  0.631838931839612  0.17942614546609226  0.8672980951166479  1.0000
  C   C2        1.0  0.868161068745958  0.6794261448458974  0.6327019049878333  1.0000
  C   C3        1.0  0.3681610681941323  0.8205738545882969  0.13270190507836116  1.0000
  C   C4        1.0  0.1318389312858572  0.32057385520849196  0.36729809479280623  1.0000
  C   C5        1.0  0.5547865786130443  0.2010450253415088  0.9724417740894743  1.0000
  C   C6        1.0  0.9452134209006896  0.701045026016093  0.5275582259767021  1.0000
  C   C7        1.0  0.4452134214207001  0.7989549747128805  0.02755822610553486  1.0000
  C   C8        1.0  0.05478657913305482  0.29895497403829624  0.4724417742183069  1.0000
  C   C9        1.0  0.16373591921846248  0.9622345726695232  0.8683334349927662  1.0000
  C   C10       1.0  0.3362640808935126  0.46223457199493895  0.631666565014094  1.0000
  C   C11       1.0  0.8362640808152819  0.037765427384866074  0.13166656520224299  1.0000
  C   C12       1.0  0.6637359191383027  0.5377654280594503  0.36833343476654556  1.0000
  C   C13       1.0  0.30374787962450317  0.896368690229753  0.8773681490658165  1.0000
  C   C14       1.0  0.19625212048747193  0.3963686895551687  0.6226318509410436  1.0000
  C   C15       1.0  0.6962521204092412  0.10363130982463634  0.12263185112919263  1.0000
  C   C16       1.0  0.8037478795443433  0.6036313104992205  0.3773681488395959  1.0000
  C   C17       1.0  0.3628504644310256  0.8038655697260013  0.8356589421708748  1.0000
  C   C18       1.0  0.1371495356809495  0.30386556905141704  0.6643410578359853  1.0000
  C   C19       1.0  0.6371495356027188  0.19613443032838795  0.1643410580241343  1.0000
  C   C20       1.0  0.8628504643508657  0.6961344310029721  0.3356589419446543  1.0000
  C   C21       1.0  0.2832904837072975  0.776064616514539  0.7844168245558417  1.0000
  C   C22       1.0  0.21670951640467762  0.276064617134734  0.7155831754510186  1.0000
  C   C23       1.0  0.7167095163245177  0.22393538353985018  0.215583175224798  1.0000
  C   C24       1.0  0.7832904836290668  0.7239353829196553  0.28441682474399055  1.0000
  C   C25       1.0  0.14468008072167704  0.8428259034885257  0.7750799470576075  1.0000
  C   C26       1.0  0.35531991939029806  0.34282590281394154  0.7249200529492525  1.0000
  C   C27       1.0  0.8553199193101383  0.15717409656586348  0.22492005272303192  1.0000
  C   C28       1.0  0.6446800806434463  0.6571740972404476  0.27507994724575663  1.0000
  C   C29       1.0  0.08458956313328535  0.935377999014339  0.8168139518807082  1.0000
  C   C30       1.0  0.41541043697868973  0.435377999634534  0.683186048126152  1.0000
  C   C31       1.0  0.9154104368985297  0.06462200104005021  0.1831860478999314  1.0000
  C   C32       1.0  0.5845895630550547  0.5646220004198552  0.31681395206885715  1.0000
  C   C33       1.0  0.09693096657783414  0.057750086194971774  0.9124602569246807  1.0000
  C   C34       1.0  0.4030690335341409  0.5577500855747768  0.5875397430821794  1.0000
  C   C35       1.0  0.9030690334559102  0.9422499138594175  0.08753974327032835  1.0000
  C   C36       1.0  0.5969309664976743  0.4422499144796124  0.41246025669846015  1.0000
  C   C37       1.0  0.18287107164953753  0.2247186576084861  0.04371174035324956  1.0000
  C   C38       1.0  0.3171289289022882  0.7247186569882912  0.4562882595562226  1.0000
  C   C39       1.0  0.8171289283822777  0.7752813424459031  0.9562882594273899  1.0000
  C   C40       1.0  0.6828710711314562  0.2752813430660981  0.5437117406387866  1.0000
  C   C41       1.0  0.10114115938569676  0.3262330319771986  0.08270255036380125  1.0000
  C   C42       1.0  0.398858841166129  0.8262330313570037  0.4172974495456709  1.0000
  C   C43       1.0  0.8988588406480476  0.6737669680771906  0.9172974498312079  1.0000
  C   C44       1.0  0.6011411588656863  0.17376696869738562  0.5827025502349686  1.0000
  C   C45       1.0  0.9610684905074283  0.3862175470689921  0.06952778030064462  1.0000
  C   C46       1.0  0.5389315094461563  0.8862175477435763  0.4304722196681439  1.0000
  C   C47       1.0  0.03893150845255082  0.6137824529853971  0.93047221944169  1.0000
  C   C48       1.0  0.46106849058758803  0.11378245231081292  0.5695277805268653  1.0000
  C   C49       1.0  0.8965362443758298  0.4807419551019065  0.10969877880142251  1.0000
  C   C50       1.0  0.6034637555777548  0.9807419557764907  0.3903012211673661  1.0000
  C   C51       1.0  0.10346375565598546  0.5192580449524827  0.890301220979217  1.0000
  C   C52       1.0  0.3965362444559896  0.019258044277898536  0.6096987790276431  1.0000
  C   C53       1.0  0.9652720777226321  0.5194107848719149  0.16168772183276273  1.0000
  C   C54       1.0  0.5347279222328816  0.019410784197330794  0.3383122785503954  1.0000
  C   C55       1.0  0.03472792231111226  0.4805892151824742  0.8383122783622464  1.0000
  C   C56       1.0  0.46527207780086277  0.9805892158570585  0.6616877216446138  1.0000
  C   C57       1.0  0.104814795355073  0.45916006577256474  0.17281628045542408  1.0000
  C   C58       1.0  0.39518520412684566  0.9591600651523697  0.32718371983011285  1.0000
  C   C59       1.0  0.8951852046786715  0.5408399342818245  0.8271837197395849  1.0000
  C   C60       1.0  0.6048147959068988  0.040839934902019426  0.6728162803648963  1.0000
  C   C61       1.0  0.1734448240520163  0.3619973677983776  0.13473091873572757  1.0000
  C   C62       1.0  0.32655517542990237  0.8619973671781826  0.36526908154980936  1.0000
  C   C63       1.0  0.826555175981728  0.6380026322560116  0.8652690814592816  1.0000
  C   C64       1.0  0.673444824603842  0.1380026328762066  0.6347309186451997  1.0000
  N   N1        1.0  0.18227313361475395  0.10256544890762029  0.9560353515497023  1.0000
  N   N2        1.0  0.3177268664972211  0.6025654482874253  0.5439646484571578  1.0000
  N   N3        1.0  0.8177268664170613  0.897434551146769  0.043964648230937105  1.0000
  N   N4        1.0  0.6822731335365233  0.3974345517669639  0.4560353517378515  1.0000
  N   N5        1.0  0.7480958477214709  0.5415767244835196  0.09744971327758394  1.0000
  N   N6        1.0  0.7519041522321137  0.04157672380893539  0.4025502866912046  1.0000
  N   N7        1.0  0.25190415231034435  0.45842327557086965  0.9025502865030556  1.0000
  N   N8        1.0  0.24809584780163066  0.9584232762454539  0.5974497135038045  1.0000
  N   N9        1.0  0.181606389585273  0.49866239538994794  0.2270267969880601  1.0000
  N   N10       1.0  0.3183936098947165  0.998662394769753  0.2729732028831072  1.0000
  N   N11       1.0  0.8183936104465422  0.5013376046644412  0.7729732027925793  1.0000
  N   N12       1.0  0.6816063901390279  0.0013376052846362418  0.7270267973119019  1.0000
  O   O1        1.0  0.8142168967957217  0.301099392476858  0.9502643569473855  1.0000
  O   O2        1.0  0.685783102716083  0.8010993931514422  0.5497356427044213  1.0000
  O   O3        1.0  0.18578310323609346  0.6989006075775313  0.04973564283325398  1.0000
  O   O4        1.0  0.31421689731573227  0.198900606902947  0.45026435707621815  1.0000
  O   O5        1.0  0.957699324001358  0.08574961191888512  0.9021457773281442  1.0000
  O   O6        1.0  0.5423006765842122  0.5857496112986902  0.5978542227763373  1.0000
  O   O7        1.0  0.04230067603238641  0.9142503881355041  0.09785422286686511  1.0000
  O   O8        1.0  0.45769932344760317  0.41425038875569903  0.40214577700430226  1.0000
  O   O9        1.0  0.10230879287315009  0.1929574164392161  0.9948305263838242  1.0000
  O   O10       1.0  0.397691207238825  0.6929574158190211  0.505169473623036  1.0000
  O   O11       1.0  0.8976912071586652  0.8070425836151731  0.0051694733968153895  1.0000
  O   O12       1.0  0.6023087927949194  0.30704258423536807  0.4948305265719732  1.0000
  O   O13       1.0  0.30646334722871177  0.17743049715403103  0.055089404244227404  1.0000
  O   O14       1.0  0.19353665332311398  0.6774304978286152  0.44491059566524477  1.0000
  O   O15       1.0  0.6935366528031035  0.8225695029003582  0.9449105955364121  1.0000
  O   O16       1.0  0.8064633467087012  0.322569502225774  0.5550894041153948  1.0000
  O   O17       1.0  0.6868029212047129  0.5077621396424244  0.05107192664696049  1.0000
  O   O18       1.0  0.8131970787488718  0.007762138967840321  0.4489280733218281  1.0000
  O   O19       1.0  0.3131970788290315  0.4922378604119647  0.9489280735480486  1.0000
  O   O20       1.0  0.1868029212829435  0.9922378610865489  0.5510719264588114  1.0000
  O   O21       1.0  0.6925701545789131  0.6223532954847495  0.13438868891261313  1.0000
  O   O22       1.0  0.8074298453746714  0.12235329481016533  0.36561131105617545  1.0000
  O   O23       1.0  0.30742984545290214  0.3776467045696397  0.8656113108680263  1.0000
  O   O24       1.0  0.19257015465907296  0.877646705244224  0.6343886891388337  1.0000
  O   O25       1.0  0.1139043138770055  0.5692506339629345  0.2625513447351921  1.0000
  O   O26       1.0  0.38609568560298396  0.06925063458312948  0.23744865513597527  1.0000
  O   O27       1.0  0.8860956861548098  0.4307493660914547  0.7374486550454474  1.0000
  O   O28       1.0  0.6139043144307604  0.9307493654712597  0.7625513450590339  1.0000
  O   O29       1.0  0.31073775720954255  0.4594670488500443  0.23401636459068811  1.0000
  O   O30       1.0  0.18926224227044694  0.9594670495246286  0.26598363528047925  1.0000
  O   O31       1.0  0.6892622428242018  0.5405329512043449  0.765983635604321  1.0000
  O   O32       1.0  0.8107377577613682  0.04053295052976071  0.7340163645001603  1.0000
  S   S1        1.0  0.6570664458244185  0.32119837640323545  0.9266333510885636  1.0000
  S   S2        1.0  0.8429335547611515  0.8211983757830406  0.5733666490159178  1.0000
  S   S3        1.0  0.34293355420932575  0.6788016236511537  0.07336664910644561  1.0000
  S   S4        1.0  0.1570664452706637  0.17880162427134874  0.42663335076472175  1.0000
