data_image0
_chemical_formula_structural       H100C116N8Br4
_chemical_formula_sum              "H100 C116 N8 Br4"
_cell_length_a       8.233097218444433
_cell_length_b       11.787406788164208
_cell_length_c       22.53137747339083
_cell_angle_alpha    90.0
_cell_angle_beta     90.0
_cell_angle_gamma    90.0

_space_group_name_H-M_alt    "P 1"
_space_group_IT_number       1

loop_
  _space_group_symop_operation_xyz
  'x, y, z'

loop_
  _atom_site_type_symbol
  _atom_site_label
  _atom_site_symmetry_multiplicity
  _atom_site_fract_x
  _atom_site_fract_y
  _atom_site_fract_z
  _atom_site_occupancy
  H   H1        1.0  0.2753735513921652  0.5449968000129145  0.1142800924196001  1.0000
  H   H2        1.0  0.2246264487023052  0.4550032001428273  0.614280092566266  1.0000
  H   H3        1.0  0.7753735514866356  0.9550031997965168  0.8857199074299063  1.0000
  H   H4        1.0  0.7246264487967755  0.04499680035922514  0.38571990728324035  1.0000
  H   H5        1.0  0.50351521912227  0.5455649996280093  0.9679233786640715  1.0000
  H   H6        1.0  0.9964847811611411  0.45443500052773256  0.4679233785174055  1.0000
  H   H7        1.0  0.0035152190277996207  0.954435000181422  0.032076621629260456  1.0000
  H   H8        1.0  0.4964847810666707  0.04556499997431987  0.5320766213321009  1.0000
  H   H9        1.0  0.1612920198519046  0.3781726125271228  0.08252093207331924  1.0000
  H   H10       1.0  0.33870798024256576  0.6218273876286191  0.5825209322199852  1.0000
  H   H11       1.0  0.661292019946375  0.12182738797492962  0.9174790677761872  1.0000
  H   H12       1.0  0.8387079803370361  0.8781726121808122  0.41747906762952125  1.0000
  H   H13       1.0  0.1632864308936222  0.6447838194259595  0.9725034080085654  1.0000
  H   H14       1.0  0.33671356920084816  0.35521618072978234  0.4725034078618995  1.0000
  H   H15       1.0  0.6632864309880926  0.8552161812318347  0.027496592284766502  1.0000
  H   H16       1.0  0.8367135692953185  0.1447838189239071  0.527496591987607  1.0000
  H   H17       1.0  0.6151122008682959  0.45168992940382  0.19353465162748246  1.0000
  H   H18       1.0  0.8848877994151152  0.5483100699035588  0.6935346517741484  1.0000
  H   H19       1.0  0.11511220077382552  0.04831007024986938  0.8064653482220239  1.0000
  H   H20       1.0  0.3848877993206448  0.9516899299058725  0.3064653485191835  1.0000
  H   H21       1.0  0.32779613290050624  0.04724125501116477  0.0066389971130996405  1.0000
  H   H22       1.0  0.17220386719396405  0.952758745144577  0.5066389968159402  1.0000
  H   H23       1.0  0.8277961329949767  0.45275874464252464  0.9933610031802322  1.0000
  H   H24       1.0  0.6722038672884343  0.5472412546648542  0.4933610030335663  1.0000
  H   H25       1.0  0.5135788340416203  0.0984825984936415  0.08984462900196365  1.0000
  H   H26       1.0  0.9864211662417907  0.9015174016621004  0.5898446291486296  1.0000
  H   H27       1.0  0.01357883394715006  0.40151740200841096  0.9101553708475427  1.0000
  H   H28       1.0  0.4864211661473202  0.598482598147331  0.4101553707008768  1.0000
  H   H29       1.0  0.6104523445612366  0.9565625164749277  0.16011070669160876  1.0000
  H   H30       1.0  0.8895476557221744  0.04343748368081409  0.6601107068382747  1.0000
  H   H31       1.0  0.1104523444667663  0.5434374833345035  0.8398892931578976  1.0000
  H   H32       1.0  0.38954765562770405  0.45656251682123833  0.3398892934550572  1.0000
  H   H33       1.0  0.4730141666826819  0.39164189570817154  0.893563316480627  1.0000
  H   H34       1.0  0.02698583341178841  0.6083581035992073  0.39356331677778666  1.0000
  H   H35       1.0  0.9730141667771522  0.10835810394551784  0.10643668336887933  1.0000
  H   H36       1.0  0.526985832291649  0.891641896210224  0.6064366835155454  1.0000
  H   H37       1.0  0.5688753121373834  0.8618661960662009  0.23230811725477177  1.0000
  H   H38       1.0  0.9311246869314179  0.13813380408954096  0.7323081174014378  1.0000
  H   H39       1.0  0.0688753132575228  0.6381338037432304  0.7676918825947345  1.0000
  H   H40       1.0  0.43112468683694755  0.3618661964125115  0.26769188289189416  1.0000
  H   H41       1.0  0.1327706343065063  0.2220041767479846  0.009302481406098287  1.0000
  H   H42       1.0  0.36722936578796406  0.7779958234077572  0.5093024815527643  1.0000
  H   H43       1.0  0.6327706344009766  0.27799582375406784  0.9906975184434081  1.0000
  H   H44       1.0  0.8672293658824344  0.722004176401674  0.49069751874056766  1.0000
  H   H45       1.0  0.697236976279092  0.5281350836429007  0.2912219302947267  1.0000
  H   H46       1.0  0.8027630227897092  0.47186491651284107  0.7912219299975672  1.0000
  H   H47       1.0  0.19723697618462172  0.9718649170148935  0.7087780699986052  1.0000
  H   H48       1.0  0.30276302269523886  0.028135083140848335  0.20877806985193922  1.0000
  H   H49       1.0  0.5760971739012403  0.7592933102967855  0.356036884982902  1.0000
  H   H50       1.0  0.9239028263821707  0.24070668985895646  0.856036885129568  1.0000
  H   H51       1.0  0.07609717380676992  0.7407066895126458  0.6439631148666043  1.0000
  H   H52       1.0  0.42390282628770043  0.2592933097947329  0.14396311516376392  1.0000
  H   H53       1.0  0.740299916093009  0.8340405134631929  0.32390760700800086  1.0000
  H   H54       1.0  0.7597000841904019  0.16595948669254904  0.8239076067108413  1.0000
  H   H55       1.0  0.2402999159985387  0.6659594863462385  0.676092393285331  1.0000
  H   H56       1.0  0.25970008409593165  0.3340405129611404  0.17609239313866507  1.0000
  H   H57       1.0  0.7689179894314552  0.6937721346998343  0.3516126335088088  1.0000
  H   H58       1.0  0.7310820108519558  0.3062278654559075  0.8516126336554747  1.0000
  H   H59       1.0  0.2689179893369849  0.8062278651095969  0.6483873663406976  1.0000
  H   H60       1.0  0.23108201075748544  0.1937721350461449  0.14838736619403164  1.0000
  H   H61       1.0  0.19803252126640777  0.8140508393784234  0.23091815563183127  1.0000
  H   H62       1.0  0.3019674788280626  0.18594915992895536  0.7309181557784972  1.0000
  H   H63       1.0  0.6980325213608781  0.6859491604310077  0.7690818442176751  1.0000
  H   H64       1.0  0.8019674777079232  0.3140508397247341  0.2690818445148347  1.0000
  H   H65       1.0  0.1728707851052088  0.4575638812614519  0.2727909950138975  1.0000
  H   H66       1.0  0.3271292149892615  0.5424361188942899  0.7727909951605635  1.0000
  H   H67       1.0  0.6728707851996791  0.04243611924060049  0.7272090048356089  1.0000
  H   H68       1.0  0.8271292150837318  0.9575638809151413  0.22720900468894295  1.0000
  H   H69       1.0  0.009262436477630752  0.789434201027454  0.08683631537000534  1.0000
  H   H70       1.0  0.4907375636168396  0.21056579912828774  0.5868363155166713  1.0000
  H   H71       1.0  0.5092624353574914  0.7105657987819771  0.913163684479501  1.0000
  H   H72       1.0  0.9907375637113099  0.2894342013737647  0.4131636843328351  1.0000
  H   H73       1.0  0.0676613922099722  0.8880079603692203  0.14295575598091745  1.0000
  H   H74       1.0  0.4323386078844981  0.11199203893815853  0.642955755683758  1.0000
  H   H75       1.0  0.5676613923044426  0.611992039440211  0.8570442443124145  1.0000
  H   H76       1.0  0.9323386079789684  0.3880079607155309  0.3570442441657485  1.0000
  H   H77       1.0  0.8669762266391213  0.8315217457194842  0.14109068004183528  1.0000
  H   H78       1.0  0.6330237736442896  0.16847825443625764  0.6410906801885012  1.0000
  H   H79       1.0  0.36697622654465095  0.6684782540899471  0.8589093198076712  1.0000
  H   H80       1.0  0.13302377354981937  0.33152174606579476  0.3589093196610052  1.0000
  H   H81       1.0  0.9919769454080473  0.427965608607426  0.18631956723275392  1.0000
  H   H82       1.0  0.5080230548753636  0.5720343915483158  0.6863195673794199  1.0000
  H   H83       1.0  0.49197694531357705  0.0720343918946264  0.8136804326167524  1.0000
  H   H84       1.0  0.008023054780893307  0.9279656082611154  0.313680432913912  1.0000
  H   H85       1.0  0.280457902868815  0.6518602503576344  0.2938465913954446  1.0000
  H   H86       1.0  0.2195420972256553  0.3481397497981074  0.793846591098285  1.0000
  H   H87       1.0  0.7804579029632854  0.8481397494517968  0.7061534088978872  1.0000
  H   H88       1.0  0.7195420973201256  0.15186025070394502  0.20615340875122135  1.0000
  H   H89       1.0  0.9151033396182225  0.5903563018616897  0.12160218269991409  1.0000
  H   H90       1.0  0.5848966606651884  0.40964369829405206  0.6216021828465801  1.0000
  H   H91       1.0  0.4151033395237523  0.9096436979477416  0.8783978171495923  1.0000
  H   H92       1.0  0.08489666057071805  0.09035630220800035  0.3783978170029264  1.0000
  H   H93       1.0  0.5660827591782743  0.4815513405119387  0.10034820075559883  1.0000
  H   H94       1.0  0.9339172411051367  0.5184486596438032  0.6003482009022647  1.0000
  H   H95       1.0  0.06608275908380397  0.01844865914175071  0.8996517990939076  1.0000
  H   H96       1.0  0.4339172410106664  0.981551341013991  0.3996517989472416  1.0000
  H   H97       1.0  0.16420867191647684  0.8570917735819858  0.9575176997269143  1.0000
  H   H98       1.0  0.3357913281779935  0.142908226573756  0.45751769958024835  1.0000
  H   H99       1.0  0.6642086720109471  0.6429082262274454  0.0424823005664176  1.0000
  H   H100      1.0  0.8357913282724638  0.35709177392829644  0.542482300269258  1.0000
  C   C1        1.0  0.30402142760958745  0.2976186257966894  0.9482445915804306  1.0000
  C   C2        1.0  0.1959785724848829  0.7023813743590523  0.4482445918775902  1.0000
  C   C3        1.0  0.8040214277040578  0.202381374705363  0.0517554082690758  1.0000
  C   C4        1.0  0.6959785725793532  0.7976186254503789  0.5517554084157418  1.0000
  C   C5        1.0  0.38172757670822244  0.7840955314514463  0.07305656842081558  1.0000
  C   C6        1.0  0.11827242338624791  0.21590446870429555  0.573056568123656  1.0000
  C   C7        1.0  0.8817275768026928  0.715904469206348  0.9269434318725164  1.0000
  C   C8        1.0  0.6182724234807182  0.2840955309493939  0.42694343172585036  1.0000
  C   C9        1.0  0.5552175164116037  0.6137558786266957  0.15559757117115108  1.0000
  C   C10       1.0  0.9447824838718074  0.3862441215290462  0.655597571317817  1.0000
  C   C11       1.0  0.055217516317133265  0.8862441211827357  0.8444024286783554  1.0000
  C   C12       1.0  0.4447824837773371  0.11375587897300625  0.3444024289755149  1.0000
  C   C13       1.0  0.35638812128036373  0.5642319366358114  0.07658641430324893  1.0000
  C   C14       1.0  0.1436118788141066  0.4357680635199304  0.5765864144499149  1.0000
  C   C15       1.0  0.856388121374834  0.9357680631736198  0.9234135855462575  1.0000
  C   C16       1.0  0.6436118789085769  0.06423193613375895  0.423413585843417  1.0000
  C   C17       1.0  0.33728055145262364  0.47086258239369766  0.031087556046105663  1.0000
  C   C18       1.0  0.1627194486418467  0.5291374177620441  0.5310875561927717  1.0000
  C   C19       1.0  0.837280551547094  0.029137417259991777  0.9689124438034008  1.0000
  C   C20       1.0  0.662719448736317  0.97086258289575  0.4689124436567348  1.0000
  C   C21       1.0  0.42369041533789625  0.47426448246558317  0.9774828998364619  1.0000
  C   C22       1.0  0.07630958475657411  0.5257355168417956  0.4774828996897959  1.0000
  C   C23       1.0  0.9236904154323666  0.025735517188106228  0.022517100013044536  1.0000
  C   C24       1.0  0.5763095848510444  0.9742644829676356  0.5225171001597105  1.0000
  C   C25       1.0  0.23207602064014127  0.38018866919056654  0.04168063852771928  1.0000
  C   C26       1.0  0.2679239794543291  0.6198113309651754  0.5416806382305598  1.0000
  C   C27       1.0  0.7320760207346115  0.11981133046312291  0.9583193617656126  1.0000
  C   C28       1.0  0.7679239795487994  0.880188668844256  0.45831936161894665  1.0000
  C   C29       1.0  0.22749279284641805  0.7021864994352222  0.001774107244317731  1.0000
  C   C30       1.0  0.2725072072480523  0.2978135007205197  0.5017741073909836  1.0000
  C   C31       1.0  0.7274927929408884  0.7978135012225721  0.9982258926051887  1.0000
  C   C32       1.0  0.7725072073425227  0.2021864989331697  0.4982258924585227  1.0000
  C   C33       1.0  0.5404493560493514  0.7319474855710569  0.16608244810683753  1.0000
  C   C34       1.0  0.9595506430194498  0.2680525145846849  0.666082447809678  1.0000
  C   C35       1.0  0.04044935716949079  0.7680525142383743  0.8339175521864943  1.0000
  C   C36       1.0  0.45955064292497955  0.23194748591736755  0.3339175520398284  1.0000
  C   C37       1.0  0.6080567151308184  0.5429235450180553  0.20171518875698896  1.0000
  C   C38       1.0  0.8919432851525926  0.4570764542893236  0.7017151884598295  1.0000
  C   C39       1.0  0.10805671503634806  0.957076454791376  0.7982848115363429  1.0000
  C   C40       1.0  0.39194328505812226  0.04292354536436582  0.298284811389677  1.0000
  C   C41       1.0  0.3187187920144332  0.6785295361173871  0.05165198050471687  1.0000
  C   C42       1.0  0.1812812080800371  0.3214704640383547  0.5516519806513828  1.0000
  C   C43       1.0  0.8187187921089036  0.821470463692044  0.9483480193447895  1.0000
  C   C44       1.0  0.6812812069598977  0.17852953646369774  0.4483480196419491  1.0000
  C   C45       1.0  0.36843575989901  0.9835043532764606  0.03834770737032837  1.0000
  C   C46       1.0  0.13156424019546037  0.01649564687928129  0.5383477075169942  1.0000
  C   C47       1.0  0.8684357599934803  0.5164956465329706  0.961652292479178  1.0000
  C   C48       1.0  0.6315642402899307  0.4835043536227711  0.46165229233251204  1.0000
  C   C49       1.0  0.4834982600572417  0.8142896204818997  0.12133580262585567  1.0000
  C   C50       1.0  0.01650174003722861  0.1857103796738422  0.6213358027725217  1.0000
  C   C51       1.0  0.983498260151712  0.6857103801758946  0.8786641972236507  1.0000
  C   C52       1.0  0.5165017401316989  0.31428961997984717  0.37866419752081026  1.0000
  C   C53       1.0  0.47214217406440984  0.011351718185746892  0.08494366055782787  1.0000
  C   C54       1.0  0.027857826030060494  0.9886482819699949  0.5849436602606684  1.0000
  C   C55       1.0  0.9721421741588803  0.4886482823163055  0.9150563397355042  1.0000
  C   C56       1.0  0.5278578261245308  0.5113517178394362  0.4150563395888381  1.0000
  C   C57       1.0  0.64179106960653  0.7018762369605553  0.2681379781211748  1.0000
  C   C58       1.0  0.8582089294622712  0.29812376319518646  0.7681379782678408  1.0000
  C   C59       1.0  0.1417910695120597  0.7981237628488759  0.7318620217283316  1.0000
  C   C60       1.0  0.35820892936780085  0.2018762364585029  0.23186202202549117  1.0000
  C   C61       1.0  0.5277671785856766  0.9292449659918711  0.12521961798971193  1.0000
  C   C62       1.0  0.9722328216977345  0.0707550341638707  0.6252196181363779  1.0000
  C   C63       1.0  0.027767178491206215  0.5707550338175601  0.8747803818597945  1.0000
  C   C64       1.0  0.47223282160326413  0.4292449663381817  0.37478038215695403  1.0000
  C   C65       1.0  0.40729815657801494  0.3881902153911019  0.9354727501632848  1.0000
  C   C66       1.0  0.0927018435164554  0.6118097839162769  0.43547275046044426  1.0000
  C   C67       1.0  0.9072981566724853  0.11180978426258753  0.06452724968622166  1.0000
  C   C68       1.0  0.5927018436109257  0.8881902158931543  0.5645272498328876  1.0000
  C   C69       1.0  0.5833489126352669  0.7716192809374091  0.2229337170322623  1.0000
  C   C70       1.0  0.9166510876481442  0.2283807192183328  0.7229337167351028  1.0000
  C   C71       1.0  0.0833489125407965  0.7283807188720223  0.7770662832610696  1.0000
  C   C72       1.0  0.41665108755367386  0.2716192812837196  0.2770662831144036  1.0000
  C   C73       1.0  0.32414043454040764  0.8696606288580048  0.03297999737821491  1.0000
  C   C74       1.0  0.17585956555406268  0.13033937129773698  0.5329799975248808  1.0000
  C   C75       1.0  0.824140434634878  0.6303393709514264  0.9670200024712915  1.0000
  C   C76       1.0  0.675859565648533  0.3696606283559524  0.46702000232462554  1.0000
  C   C77       1.0  0.21496422221701778  0.29229912922489376  0.0005931270742671024  1.0000
  C   C78       1.0  0.2850357778774526  0.7077008709308481  0.5005931272209331  1.0000
  C   C79       1.0  0.714964222311488  0.20770087042879562  0.9994068727752392  1.0000
  C   C80       1.0  0.7850357779719229  0.7922991297269462  0.49940687262857336  1.0000
  C   C81       1.0  0.6534487504832942  0.5854434129590901  0.25674223810025365  1.0000
  C   C82       1.0  0.8465512498001169  0.41455658634828874  0.7567422378030941  1.0000
  C   C83       1.0  0.15344875038882388  0.914556586850341  0.7432577621930783  1.0000
  C   C84       1.0  0.3465512497056465  0.08544341330540069  0.24325776204641228  1.0000
  C   C85       1.0  0.6846158317398038  0.7498135526191085  0.3278699146878324  1.0000
  C   C86       1.0  0.8153841685436073  0.2501864475366333  0.8278699143906729  1.0000
  C   C87       1.0  0.18461583164533338  0.7501864480386857  0.6721300856054995  1.0000
  C   C88       1.0  0.31538416844913697  0.2498135521170561  0.17213008545883354  1.0000
  C   C89       1.0  0.15123422534238637  0.7293870029693786  0.2213019344196182  1.0000
  C   C90       1.0  0.3487657747520839  0.2706129971863633  0.7213019345662841  1.0000
  C   C91       1.0  0.6512342254368567  0.7706129968400527  0.7786980654298882  1.0000
  C   C92       1.0  0.8487657748465542  0.22938700246732616  0.2786980652832222  1.0000
  C   C93       1.0  0.13895439949829147  0.5293047174943297  0.24487661912885547  1.0000
  C   C94       1.0  0.3610456005961789  0.47069528181304915  0.7448766192755214  1.0000
  C   C95       1.0  0.6389543995927618  0.9706952823151015  0.7551233807206509  1.0000
  C   C96       1.0  0.8610456006906492  0.02930471784064028  0.25512338101781046  1.0000
  C   C97       1.0  0.9960143858898057  0.8114286332769901  0.13395801182437744  1.0000
  C   C98       1.0  0.5039856143936052  0.1885713668787516  0.6339580119710434  1.0000
  C   C99       1.0  0.49601438579533547  0.6885713673808039  0.8660419880251289  1.0000
  C   C100      1.0  0.0039856142991349115  0.31142863277493776  0.36604198787846304  1.0000
  C   C101      1.0  0.037087268848951076  0.5127875730961663  0.1960853225781543  1.0000
  C   C102      1.0  0.4629127312455193  0.48721242705957557  0.6960853222809947  1.0000
  C   C103      1.0  0.5370872689434214  0.9872124275616281  0.8039146777151776  1.0000
  C   C104      1.0  0.9629127313399897  0.012787572594113835  0.30391467756851165  1.0000
  C   C105      1.0  0.19732946021338968  0.6379383027274926  0.256972675409563  1.0000
  C   C106      1.0  0.3026705386664709  0.3620616974282492  0.7569726755562289  1.0000
  C   C107      1.0  0.69732946030786  0.8620616970819386  0.7430273244399435  1.0000
  C   C108      1.0  0.8026705387609412  0.1379383022254402  0.2430273242932775  1.0000
  C   C109      1.0  0.9933014833930441  0.6039979189611743  0.16007762882049859  1.0000
  C   C110      1.0  0.5066985156757573  0.3960020803462046  0.660077628523339  1.0000
  C   C111      1.0  0.4933014832985737  0.8960020808482569  0.8399223714728333  1.0000
  C   C112      1.0  0.006698515581286916  0.10399791930748481  0.33992237132616737  1.0000
  C   C113      1.0  0.04797534506395989  0.7141036125479254  0.17252995137962066  1.0000
  C   C114      1.0  0.4520246550305105  0.2858963876078163  0.6725299515262866  1.0000
  C   C115      1.0  0.5479753451584303  0.7858963881098688  0.8274700484698858  1.0000
  C   C116      1.0  0.9520246551249808  0.21410361204587303  0.3274700487670453  1.0000
  N   N1        1.0  0.5280302946333223  0.564074972510177  0.09886962581985229  1.0000
  N   N2        1.0  0.9719697056500887  0.4359250276455648  0.5988696259665182  1.0000
  N   N3        1.0  0.02803029453885193  0.9359250272992541  0.9011303740296541  1.0000
  N   N4        1.0  0.4719697055556184  0.06407497285648765  0.4011303743268137  1.0000
  N   N5        1.0  0.2298724926702107  0.8168639390360425  0.9906862741242226  1.0000
  N   N6        1.0  0.2701275074242596  0.18313606111969943  0.49068627397755665  1.0000
  N   N7        1.0  0.729872492764681  0.6831360607733888  0.009313726169109303  1.0000
  N   N8        1.0  0.77012750751873  0.31686393853399003  0.5093137258719498  1.0000
  Br  Br1       1.0  0.28514041407658186  0.1773581846771569  0.8918579618015633  1.0000
  Br  Br2       1.0  0.2148595860178885  0.822641815478585  0.3918579620987228  1.0000
  Br  Br3       1.0  0.7851404141710522  0.32264181497653255  0.10814203804794315  1.0000
  Br  Br4       1.0  0.7148595861123589  0.6773581843308463  0.6081420381946091  1.0000
