data_image0
_chemical_formula_structural       H16C26N10O4I2
_chemical_formula_sum              "H16 C26 N10 O4 I2"
_cell_length_a       7.014192030543676
_cell_length_b       7.740859231062198
_cell_length_c       13.597544197324297
_cell_angle_alpha    77.42109144286597
_cell_angle_beta     75.3528976961014
_cell_angle_gamma    73.45816263321444

_space_group_name_H-M_alt    "P 1"
_space_group_IT_number       1

loop_
  _space_group_symop_operation_xyz
  'x, y, z'

loop_
  _atom_site_type_symbol
  _atom_site_label
  _atom_site_symmetry_multiplicity
  _atom_site_fract_x
  _atom_site_fract_y
  _atom_site_fract_z
  _atom_site_occupancy
  H   H1        1.0  0.617448333917991  0.5734290946375252  0.6613367818862046  1.0000
  H   H2        1.0  0.3825516668956662  0.42657090459156677  0.3386632180142014  1.0000
  H   H3        1.0  0.508132838922894  0.9589080041918143  0.8254689647067219  1.0000
  H   H4        1.0  0.491867160464336  0.04109199504361254  0.17453103519118685  1.0000
  H   H5        1.0  0.06412035893662903  0.3832249547503698  0.2009327388080039  1.0000
  H   H6        1.0  0.9358796411453814  0.616775045606487  0.799067261864731  1.0000
  H   H7        1.0  0.13447778001025942  0.51108812759483  0.0847176739231158  1.0000
  H   H8        1.0  0.8655222189584256  0.4889118729874633  0.9152823259774316  1.0000
  H   H9        1.0  0.09717597855122487  0.8390500835363986  0.06674217195198588  1.0000
  H   H10       1.0  0.9028240218438872  0.16094991703955996  0.9332578279510589  1.0000
  H   H11       1.0  0.7652044280183519  0.765494357029537  0.43229274423719094  1.0000
  H   H12       1.0  0.23479557095033304  0.23450564355275622  0.5677072556633566  1.0000
  H   H13       1.0  0.9810491830960991  0.10994356464961519  0.15583261992410555  1.0000
  H   H14       1.0  0.01895081597802906  0.89005643436671  0.8441673807434935  1.0000
  H   H15       1.0  0.8058302777978865  0.07433758991141506  0.3448475825981504  1.0000
  H   H16       1.0  0.19416972301577068  0.925662409317677  0.6551524173022557  1.0000
  C   C1        1.0  0.48966231815668265  0.41297828732559244  0.7990322714304036  1.0000
  C   C2        1.0  0.5103376812305473  0.5870217119098343  0.20096772846750524  1.0000
  C   C3        1.0  0.6550033270684473  0.2978802654270085  0.6371675995495747  1.0000
  C   C4        1.0  0.3449966733266649  0.70211973514895  0.3628324003534701  1.0000
  C   C5        1.0  0.5892913564554654  0.43987730411245063  0.6961015150375152  1.0000
  C   C6        1.0  0.4107086439396467  0.560122696463508  0.3038984848655296  1.0000
  C   C7        1.0  0.5291420210460434  0.09427226041629963  0.7901144480789286  1.0000
  C   C8        1.0  0.4708579779226414  0.9057277401659937  0.20988555182161897  1.0000
  C   C9        1.0  0.45804164801437997  0.23795439724635262  0.8465500636813424  1.0000
  C   C10       1.0  0.541958350954305  0.7620456033359406  0.15344993621920497  1.0000
  C   C11       1.0  0.6242785651910817  0.12584282077300055  0.6869381379296831  1.0000
  C   C12       1.0  0.3757214352040304  0.8741571798029579  0.3130618619733616  1.0000
  C   C13       1.0  0.35344377705462937  0.21143401761870245  0.9504097273367983  1.0000
  C   C14       1.0  0.6465562233404829  0.788565982957256  0.04959027256624644  1.0000
  C   C15       1.0  0.4198115149711594  0.558136309329112  0.8580825018525142  1.0000
  C   C16       1.0  0.5801884841029686  0.44186368968721307  0.14191749881508484  1.0000
  C   C17       1.0  0.020455933711277404  0.8291877180863776  0.14747720645030507  1.0000
  C   C18       1.0  0.9795440671023802  0.17081228114271452  0.8525227934501008  1.0000
  C   C19       1.0  0.8367680558625544  0.787492758937331  0.3508705767502845  1.0000
  C   C20       1.0  0.1632319442194559  0.21250724141952584  0.6491294239224504  1.0000
  C   C21       1.0  0.9903759191769587  0.6586776544217824  0.20325029656368301  1.0000
  C   C22       1.0  0.009624079791726347  0.3413223461605109  0.7967497033368646  1.0000
  C   C23       1.0  0.9546233288875273  0.9795029952257537  0.19787586781874383  1.0000
  C   C24       1.0  0.04537667192613008  0.020497004003338398  0.8021241320816621  1.0000
  C   C25       1.0  0.858911609723881  0.9602559358988818  0.3019664590470324  1.0000
  C   C26       1.0  0.14108839067123122  0.039744064677076724  0.6980335408560122  1.0000
  N   N1        1.0  0.26598151472221576  0.19520011138612028  0.03578738463846516  1.0000
  N   N2        1.0  0.7340184856728963  0.8047998891898382  0.9642126152645796  1.0000
  N   N3        1.0  0.6860317004403808  0.9682892843909979  0.6327595717560528  1.0000
  N   N4        1.0  0.313968298528304  0.03171071619129536  0.3672404281444947  1.0000
  N   N5        1.0  0.3606472211830927  0.6720333400219355  0.9100710716981766  1.0000
  N   N6        1.0  0.6393527796305647  0.3279666592071567  0.08992892820222949  1.0000
  N   N7        1.0  0.9004095296456469  0.6390654470421812  0.3041232187702166  1.0000
  N   N8        1.0  0.09959047074946523  0.3609345535337773  0.6958767811328281  1.0000
  N   N9        1.0  0.04558228609665241  0.5077005405345417  0.15620958730144457  1.0000
  N   N10       1.0  0.9544177142984598  0.4922994600414169  0.8437904126016003  1.0000
  O   O1        1.0  0.7333523291569928  0.8138933392540256  0.6842190669102646  1.0000
  O   O2        1.0  0.2666476702302374  0.1861066599814011  0.31578093298764437  1.0000
  O   O3        1.0  0.6849551892870078  0.9967290804647715  0.5399426330461283  1.0000
  O   O4        1.0  0.3150448111081046  0.0032709201111868944  0.4600573668569164  1.0000
  I   I1        1.0  0.793580589668291  0.3720263084442926  0.4829450601680518  1.0000
  I   I2        1.0  0.20641940898729197  0.627973691918899  0.5170549405021859  1.0000
