data_image0
_chemical_formula_structural       H24C52N16O8Br4
_chemical_formula_sum              "H24 C52 N16 O8 Br4"
_cell_length_a       13.35046441069929
_cell_length_b       6.574212687645005
_cell_length_c       14.602179919011448
_cell_angle_alpha    90.0
_cell_angle_beta     104.82147597101658
_cell_angle_gamma    90.0

_space_group_name_H-M_alt    "P 1"
_space_group_IT_number       1

loop_
  _space_group_symop_operation_xyz
  'x, y, z'

loop_
  _atom_site_type_symbol
  _atom_site_label
  _atom_site_symmetry_multiplicity
  _atom_site_fract_x
  _atom_site_fract_y
  _atom_site_fract_z
  _atom_site_occupancy
  H   H1        1.0  0.10121956892758337  0.48914146115828294  0.13775484776752317  1.0000
  H   H2        1.0  0.8987804309448436  0.9891414605768442  0.36224515215230424  1.0000
  H   H3        1.0  0.8987804315493748  0.5108585391999341  0.8622451526239131  1.0000
  H   H4        1.0  0.10121956858238007  0.010858539781372939  0.6377548475339576  1.0000
  H   H5        1.0  0.47463813294345575  0.5472252163001914  0.1436331603780808  1.0000
  H   H6        1.0  0.5253618669289711  0.047225216881630144  0.3563668395417466  1.0000
  H   H7        1.0  0.5253618665837679  0.452774782536931  0.856366839308181  1.0000
  H   H8        1.0  0.474638133547987  0.952774783476587  0.6436331608496898  1.0000
  H   H9        1.0  0.31685991578915396  0.49447697305401456  0.7162565860462984  1.0000
  H   H10       1.0  0.6831400841409959  0.9944769739936704  0.7837434134031802  1.0000
  H   H11       1.0  0.6831400844861992  0.5055230257831077  0.28374341363674566  1.0000
  H   H12       1.0  0.31685991538622765  0.005523026364546582  0.21625658628308167  1.0000
  H   H13       1.0  0.2980447046157348  0.46623297809642  0.542270889196042  1.0000
  H   H14       1.0  0.7019552955160201  0.9662329775149812  0.9577291109618288  1.0000
  H   H15       1.0  0.7019552949114889  0.533767022261797  0.4577291104902199  1.0000
  H   H16       1.0  0.29804470496093804  0.03376702132214118  0.04227088942960752  1.0000
  H   H17       1.0  0.9842334175071934  0.5306325024372822  0.6556824235125807  1.0000
  H   H18       1.0  0.015766582422956556  0.03063250301872107  0.844317575936898  1.0000
  H   H19       1.0  0.015766582020030256  0.4693674979209348  0.34431757617368125  1.0000
  H   H20       1.0  0.9842334178523967  0.969367497339496  0.1556824237461462  1.0000
  H   H21       1.0  0.1553936600272592  0.528227304925234  0.7739815812831575  1.0000
  H   H22       1.0  0.8446063401044958  0.028227303985578104  0.7260184188747133  1.0000
  H   H23       1.0  0.844606340248094  0.47177269543298306  0.22601841839988662  1.0000
  H   H24       1.0  0.15539365962433288  0.9717726948515442  0.27398158151994073  1.0000
  C   C1        1.0  0.3180587940890287  0.537848724706628  0.05480187837521877  1.0000
  C   C2        1.0  0.6819412057833981  0.03784872528806693  0.44519812154460864  1.0000
  C   C3        1.0  0.6819412056397999  0.4621512741304942  0.9451981220194352  1.0000
  C   C4        1.0  0.318058794491955  0.9621512750701501  0.5548018781384355  1.0000
  C   C5        1.0  0.18303497155013973  0.500542446121982  0.13913595305370047  1.0000
  C   C6        1.0  0.8169650283222871  0.0005424467034207649  0.36086404686612694  1.0000
  C   C7        1.0  0.8169650289268183  0.4994575527151404  0.8608640473377358  1.0000
  C   C8        1.0  0.18303497120493645  0.9994575536547963  0.639135952820135  1.0000
  C   C9        1.0  0.34882151128008043  0.5594230784336608  0.9689340977458517  1.0000
  C   C10       1.0  0.6511784888516745  0.059423077494004994  0.5310659024120191  1.0000
  C   C11       1.0  0.6511784889952729  0.44057692192455616  0.031065901937192497  1.0000
  C   C12       1.0  0.3488215108771541  0.9405769228642119  0.46893409798263486  1.0000
  C   C13       1.0  0.13320245965479505  0.5208362313003546  0.9674779534055222  1.0000
  C   C14       1.0  0.8667975404769598  0.020836230360698784  0.5325220467523486  1.0000
  C   C15       1.0  0.8667975400740335  0.47916376905786234  0.03252204698913178  1.0000
  C   C16       1.0  0.13320245979839343  0.9791637684764235  0.4674779529306956  1.0000
  C   C17       1.0  0.3624295055675354  0.5124938498463639  0.22536153846092166  1.0000
  C   C18       1.0  0.6375704945064964  0.012493848906708089  0.2746384621672978  1.0000
  C   C19       1.0  0.6375704941612931  0.48750615051185303  0.7746384619337323  1.0000
  C   C20       1.0  0.3624295059704617  0.9875061514515089  0.7253615382241384  1.0000
  C   C21       1.0  0.21185721393692952  0.5197105558238208  0.054212351680904936  1.0000
  C   C22       1.0  0.7881427859354974  0.01971055640525957  0.4457876482389225  1.0000
  C   C23       1.0  0.788142785791899  0.48028944301330156  0.945787648713749  1.0000
  C   C24       1.0  0.21185721359172618  0.9802894439529575  0.5542123514473394  1.0000
  C   C25       1.0  0.392675751009345  0.5357338418057251  0.14136919495727046  1.0000
  C   C26       1.0  0.6073242496112115  0.03573384086606925  0.35863080495933924  1.0000
  C   C27       1.0  0.6073242492660081  0.46426615855249187  0.8586308047257737  1.0000
  C   C28       1.0  0.3926757506641418  0.9642661594921478  0.6413691947237049  1.0000
  C   C29       1.0  0.25787592604072634  0.4945704443226206  0.22593973641827755  1.0000
  C   C30       1.0  0.7421240738317006  0.9945704452622764  0.2740602635015499  1.0000
  C   C31       1.0  0.7421240734864973  0.5054295560355964  0.7740602632679844  1.0000
  C   C32       1.0  0.25787592664525755  0.005429555095940557  0.7259397368898864  1.0000
  C   C33       1.0  0.24057120867517087  0.49664942786778116  0.6669723915144145  1.0000
  C   C34       1.0  0.7594287914565839  0.9966494288074371  0.8330276086434564  1.0000
  C   C35       1.0  0.7594287918017872  0.5033505724904358  0.3330276088770219  1.0000
  C   C36       1.0  0.24057120827224457  0.003350571550779958  0.16697239175119769  1.0000
  C   C37       1.0  0.05062977169265036  0.49944848699079714  0.5361602155852003  1.0000
  C   C38       1.0  0.9493702276909751  0.999448487930453  0.9638397845758883  1.0000
  C   C39       1.0  0.9493702280361781  0.5005515133674199  0.4638397848094537  1.0000
  C   C40       1.0  0.05062977183624871  0.0005515124277640018  0.03616021511037367  1.0000
  C   C41       1.0  0.22950741204839645  0.48087647148094653  0.5696947976917394  1.0000
  C   C42       1.0  0.7704925880833584  0.9808764724206023  0.9303052024661314  1.0000
  C   C43       1.0  0.7704925874788273  0.5191235273561758  0.4303052019945226  1.0000
  C   C44       1.0  0.22950741239359973  0.019123527937614657  0.06969479792530486  1.0000
  C   C45       1.0  0.05530942239204374  0.5164390675069886  0.6329506547185457  1.0000
  C   C46       1.0  0.9446905777397111  0.01643906808842747  0.8670493454393251  1.0000
  C   C47       1.0  0.9446905780849144  0.48356093285122836  0.36704934567289055  1.0000
  C   C48       1.0  0.055309422535642104  0.9835609322697895  0.1329506542437191  1.0000
  C   C49       1.0  0.15121104820351441  0.5149768346196855  0.6988410556592469  1.0000
  C   C50       1.0  0.8487889519282404  0.014976833680029656  0.8011589444986238  1.0000
  C   C51       1.0  0.8487889513237092  0.4850231657385315  0.301158944027015  1.0000
  C   C52       1.0  0.1512110485487177  0.9850231666781873  0.19884105589281248  1.0000
  N   N1        1.0  0.44705409946068886  0.5038067061968544  0.3125097970929094  1.0000
  N   N2        1.0  0.552945900411738  0.0038067067782932913  0.18749020282691806  1.0000
  N   N3        1.0  0.5529459000665347  0.49619329416136254  0.6874902025933525  1.0000
  N   N4        1.0  0.4470540998636152  0.9961932935799237  0.8125097968561261  1.0000
  N   N5        1.0  0.37357954709171715  0.5794437495396254  0.898392042523784  1.0000
  N   N6        1.0  0.6264204530400376  0.07944375012106424  0.6016079576340867  1.0000
  N   N7        1.0  0.626420453385241  0.4205562492974969  0.10160795786765221  1.0000
  N   N8        1.0  0.37357954648718594  0.9205562502371527  0.3983920420521752  1.0000
  N   N9        1.0  0.06753510525401647  0.5209237033715093  0.8972035061719927  1.0000
  N   N10       1.0  0.9324648948777384  0.02092370243185351  0.6027964939858781  1.0000
  N   N11       1.0  0.9324648950213368  0.4790762969867077  0.10279649351105141  1.0000
  N   N12       1.0  0.06753510559921974  0.9790762979263635  0.39720350640555824  1.0000
  N   N13       1.0  0.13769414815985068  0.48202789909055604  0.5052558161823155  1.0000
  N   N14       1.0  0.8623058517702993  0.9820279000302119  0.9947441832671631  1.0000
  N   N15       1.0  0.8623058521155025  0.5179720997465662  0.49474418350072863  1.0000
  N   N16       1.0  0.13769414775692435  0.017972100328005086  0.005255816419098764  1.0000
  O   O1        1.0  0.437878534613044  0.38766560820120816  0.3762664945816837  1.0000
  O   O2        1.0  0.562121465259383  0.8876656091408639  0.1237335053381437  1.0000
  O   O3        1.0  0.5621214651157846  0.6123343906359142  0.6237335058129703  1.0000
  O   O4        1.0  0.4378785350159703  0.11233439121735304  0.8762664943449006  1.0000
  O   O5        1.0  0.523911187928048  0.6118796669842718  0.3148312011180987  1.0000
  O   O6        1.0  0.47608881214598375  0.11187966756571059  0.18516879951012083  1.0000
  O   O7        1.0  0.47608881180078044  0.38812033337394525  0.6851687992765554  1.0000
  O   O8        1.0  0.5239111875828448  0.8881203327925065  0.8148312008845332  1.0000
  Br  Br1       1.0  0.20825253949640957  0.4755649213898422  0.3356137836620157  1.0000
  Br  Br2       1.0  0.791747461124147  0.9755649223294981  0.16438621625459404  1.0000
  Br  Br3       1.0  0.7917474607789436  0.5244350789683748  0.6643862160210285  1.0000
  Br  Br4       1.0  0.20825253915120623  0.024435078028718974  0.83561378342845  1.0000
