data_image0
_chemical_formula_structural       H44C72N16O8I4
_chemical_formula_sum              "H44 C72 N16 O8 I4"
_cell_length_a       7.641970769204538
_cell_length_b       15.911527227396858
_cell_length_c       13.712232213555126
_cell_angle_alpha    90.0
_cell_angle_beta     103.27035120401561
_cell_angle_gamma    90.0

_space_group_name_H-M_alt    "P 1"
_space_group_IT_number       1

loop_
  _space_group_symop_operation_xyz
  'x, y, z'

loop_
  _atom_site_type_symbol
  _atom_site_label
  _atom_site_symmetry_multiplicity
  _atom_site_fract_x
  _atom_site_fract_y
  _atom_site_fract_z
  _atom_site_occupancy
  H   H1        1.0  0.986643127370722  0.8729630186650817  0.5648132391996118  1.0000
  H   H2        1.0  0.013356872240185762  0.37296301889751887  0.9351867611882402  1.0000
  H   H3        1.0  0.013356872525088154  0.12703698149851925  0.43518676129213407  1.0000
  H   H4        1.0  0.9866431273469923  0.6270369812660822  0.0648132385542223  1.0000
  H   H5        1.0  0.6110111110978725  0.7624249656633808  0.6363463521490204  1.0000
  H   H6        1.0  0.3889888885130352  0.26242496526734277  0.8636536482388314  1.0000
  H   H7        1.0  0.3889888887979377  0.23757503450022008  0.36365364834272534  1.0000
  H   H8        1.0  0.611011111382775  0.7375750348962582  0.1363463522529144  1.0000
  H   H9        1.0  0.2769781806586683  0.4064370690240784  0.6045270343313206  1.0000
  H   H10       1.0  0.7230218199521666  0.9064370687916413  0.895472965307239  1.0000
  H   H11       1.0  0.7230218189285099  0.5935629311395225  0.3954729654111419  1.0000
  H   H12       1.0  0.2769781809435707  0.09356293074348448  0.1045270344352145  1.0000
  H   H13       1.0  0.5823931705652841  0.13932625563326806  0.6318089336928295  1.0000
  H   H14       1.0  0.41760682873699156  0.6393262560293062  0.8681910659457389  1.0000
  H   H15       1.0  0.417606829021894  0.8606737439018577  0.3681910660496329  1.0000
  H   H16       1.0  0.5823931708501866  0.3606737441342948  0.13180893379672348  1.0000
  H   H17       1.0  0.921904050552063  0.49114472095074424  0.6069356158415654  1.0000
  H   H18       1.0  0.07809595005877183  0.9911447213467824  0.8930643837969939  1.0000
  H   H19       1.0  0.07809594903511503  0.5088552785843815  0.393064383900897  1.0000
  H   H20       1.0  0.9219040508369655  0.008855278816818612  0.10693561594545939  1.0000
  H   H21       1.0  0.9606893857623956  0.4830193481846788  0.7385301586355202  1.0000
  H   H22       1.0  0.03931061515707145  0.9830193479522417  0.7614698417523227  1.0000
  H   H23       1.0  0.0393106141334146  0.5169806519789222  0.2614698418562256  1.0000
  H   H24       1.0  0.960689386047298  0.016980652211359287  0.2385301587394142  1.0000
  H   H25       1.0  0.7921770625958661  0.5529296801159014  0.6718416132685158  1.0000
  H   H26       1.0  0.20782293701504176  0.05292968034833847  0.828158387119336  1.0000
  H   H27       1.0  0.20782293729994417  0.44707031941922437  0.32815838722322993  1.0000
  H   H28       1.0  0.7921770625721363  0.9470703198152625  0.17184161262312644  1.0000
  H   H29       1.0  0.0598204443939168  0.35978933248738704  0.6960814191890224  1.0000
  H   H30       1.0  0.9401795552169909  0.8597893322549499  0.8039185811988293  1.0000
  H   H31       1.0  0.9401795555018934  0.6402106676762139  0.3039185813027232  1.0000
  H   H32       1.0  0.05982044467881925  0.14021066790865103  0.19608141929291656  1.0000
  H   H33       1.0  0.9032526406851216  0.09939686350640421  0.6668689653496033  1.0000
  H   H34       1.0  0.0967473602343456  0.5993968632739671  0.8331310350382396  1.0000
  H   H35       1.0  0.09674736051924797  0.9006031366571967  0.3331310351421335  1.0000
  H   H36       1.0  0.9032526396614646  0.4006031368896339  0.16686896545350632  1.0000
  H   H37       1.0  0.14151185315650497  0.20876497601565835  0.6994621270900271  1.0000
  H   H38       1.0  0.8584881464544029  0.7087649764116964  0.8005378732978248  1.0000
  H   H39       1.0  0.8584881467393053  0.7912350241479426  0.3005378734017187  1.0000
  H   H40       1.0  0.14151185344140735  0.2912350237519046  0.19946212719392106  1.0000
  H   H41       1.0  0.3464207780884863  0.25262084415624053  0.6051472547518  1.0000
  H   H42       1.0  0.6535792215224215  0.7526208439238035  0.894852745636052  1.0000
  H   H43       1.0  0.653579221807324  0.7473791560073604  0.39485274573994594  1.0000
  H   H44       1.0  0.3464207783733887  0.24737915561132237  0.10514725485569386  1.0000
  C   C1        1.0  0.12432520322315442  0.8499399232220974  0.5812179373062417  1.0000
  C   C2        1.0  0.8756747973876806  0.34993992345453456  0.9187820623323179  1.0000
  C   C3        1.0  0.8756747976725828  0.15006007694150347  0.4187820624362117  1.0000
  C   C4        1.0  0.12432520350805677  0.6500600767090663  0.08121793741013558  1.0000
  C   C5        1.0  0.330286105088271  0.729045515506924  0.6057490114880724  1.0000
  C   C6        1.0  0.6697138942140047  0.2290455157393611  0.8942509881504961  1.0000
  C   C7        1.0  0.6697138944989072  0.270954484656677  0.39425098825439003  1.0000
  C   C8        1.0  0.3302861053731734  0.7709544844242399  0.10574901159196633  1.0000
  C   C9        1.0  0.2685024680817424  0.9057823585396887  0.5963597189974112  1.0000
  C   C10       1.0  0.7314975312205333  0.4057823587721258  0.9036402806411573  1.0000
  C   C11       1.0  0.7314975315054357  0.09421764162391229  0.40364028074505126  1.0000
  C   C12       1.0  0.2685024683666448  0.5942176413914753  0.09635971910130516  1.0000
  C   C13       1.0  0.4460176055694217  0.8728259557691803  0.616153046047782  1.0000
  C   C14       1.0  0.5539823940414861  0.3728259560016175  0.8838469543400699  1.0000
  C   C15       1.0  0.5539823943263884  0.1271740443944206  0.38384695444396383  1.0000
  C   C16       1.0  0.44601760585432415  0.6271740441619834  0.11615304615167599  1.0000
  C   C17       1.0  0.47397789889923364  0.7862003697835227  0.621313931573201  1.0000
  C   C18       1.0  0.5260221007116742  0.2862003700159598  0.8786860688146508  1.0000
  C   C19       1.0  0.5260221009965765  0.2137996297516031  0.37868606891854484  1.0000
  C   C20       1.0  0.473977899184136  0.7137996301476411  0.12131393167709494  1.0000
  C   C21       1.0  0.15631428874389014  0.763397813824263  0.5850478479875852  1.0000
  C   C22       1.0  0.8436857118669447  0.2633978140567002  0.9149521516509742  1.0000
  C   C23       1.0  0.8436857121518472  0.2366021857108627  0.4149521517548682  1.0000
  C   C24       1.0  0.1563142877202333  0.7366021861069008  0.08504784809148822  1.0000
  C   C25       1.0  0.5982610304188869  0.9268650513073823  0.6317993399115531  1.0000
  C   C26       1.0  0.4017389705005803  0.4268650515398194  0.8682006604762897  1.0000
  C   C27       1.0  0.40173896947692345  0.07313494885621867  0.36820066058019274  1.0000
  C   C28       1.0  0.5982610307037892  0.5731349486237816  0.13179934001544708  1.0000
  C   C29       1.0  0.24010789449213069  0.9941611018182533  0.5928758379063438  1.0000
  C   C30       1.0  0.7598921061187043  0.49416110142221537  0.9071241617322157  1.0000
  C   C31       1.0  0.7598921050950475  0.0058388983453475495  0.4071241618361187  1.0000
  C   C32       1.0  0.24010789477703304  0.5058388981129104  0.0928758380102377  1.0000
  C   C33       1.0  0.41527056403201806  0.3835325819316962  0.6214394252979446  1.0000
  C   C34       1.0  0.5847294352702577  0.883532581699259  0.878560574340624  1.0000
  C   C35       1.0  0.58472943555516  0.6164674182319048  0.37856057444451785  1.0000
  C   C36       1.0  0.41527056431692044  0.11646741846434192  0.12143942540183855  1.0000
  C   C37       1.0  0.7177168049859807  0.4229317050353909  0.6567970442981801  1.0000
  C   C38       1.0  0.28228319462492707  0.9229317048029538  0.8432029560896718  1.0000
  C   C39       1.0  0.2822831949098295  0.57706829512821  0.3432029561935657  1.0000
  C   C40       1.0  0.717716804962251  0.07706829473217196  0.15679704365279065  1.0000
  C   C41       1.0  0.7719030479354146  0.33660681300145917  0.6603743359833102  1.0000
  C   C42       1.0  0.2280969526754203  0.8366068133974972  0.8396256636552493  1.0000
  C   C43       1.0  0.2280969529603227  0.6633931871621419  0.33962566375914316  1.0000
  C   C44       1.0  0.7719030482203171  0.16339318676610376  0.16037433608720417  1.0000
  C   C45       1.0  0.6867202115888955  0.18746152756877688  0.6451238920245779  1.0000
  C   C46       1.0  0.31327978771338016  0.687461527964815  0.8548761076139907  1.0000
  C   C47       1.0  0.31327978799828254  0.8125384719663489  0.3548761077178846  1.0000
  C   C48       1.0  0.686720211873798  0.31253847219878605  0.14512389212847177  1.0000
  C   C49       1.0  0.8550696276874044  0.4914138214549767  0.6699253767679123  1.0000
  C   C50       1.0  0.14493037292343056  0.9914138212225396  0.830074622870647  1.0000
  C   C51       1.0  0.14493037320833305  0.5085861787086243  0.3300746229745411  1.0000
  C   C52       1.0  0.8550696266637474  0.008586178312586215  0.16992537687181536  1.0000
  C   C53       1.0  0.9551934602102325  0.3119721450404172  0.6812804768267542  1.0000
  C   C54       1.0  0.04480653940067528  0.8119721454364552  0.8187195235610978  1.0000
  C   C55       1.0  0.044806539685577636  0.6880278544947086  0.3187195236649917  1.0000
  C   C56       1.0  0.9551934604951351  0.1880278547271457  0.18128047693064808  1.0000
  C   C57       1.0  0.6355610879870135  0.2731604702605958  0.6423769510526841  1.0000
  C   C58       1.0  0.3644389113152622  0.7731604700281587  0.8576230485858845  1.0000
  C   C59       1.0  0.3644389116001646  0.7268395299030052  0.3576230486897784  1.0000
  C   C60       1.0  0.6355610882719159  0.22683953013544228  0.14237695115657806  1.0000
  C   C61       1.0  0.866057769194183  0.1654341674674461  0.6652232633472012  1.0000
  C   C62       1.0  0.13394223010809272  0.6654341678634841  0.8347767362913675  1.0000
  C   C63       1.0  0.13394223039299508  0.8345658326961549  0.33477673639526134  1.0000
  C   C64       1.0  0.8660577694790853  0.3345658323001168  0.16522326345109503  1.0000
  C   C65       1.0  0.0009460477223291696  0.22797045048914763  0.6835403305933091  1.0000
  C   C66       1.0  0.9990539531971379  0.7279704502567105  0.8164596697945338  1.0000
  C   C67       1.0  0.9990539534820403  0.7720295496744533  0.3164596698984277  1.0000
  C   C68       1.0  0.0009460466986723273  0.2720295492784153  0.18354033069721207  1.0000
  C   C69       1.0  0.4534713395578596  0.2992368992589127  0.6218481360792463  1.0000
  C   C70       1.0  0.5465286613616075  0.7992368990264755  0.8781518643085966  1.0000
  C   C71       1.0  0.5465286603379506  0.7007631009046883  0.3781518644124995  1.0000
  C   C72       1.0  0.453471339842762  0.2007631011371254  0.12184813618314029  1.0000
  N   N1        1.0  0.9953745346536803  0.7099532822059664  0.5658460492529342  1.0000
  N   N2        1.0  0.004625464957227568  0.2099532824384035  0.9341539511349176  1.0000
  N   N3        1.0  0.004625465242129929  0.2900467173291594  0.4341539512388115  1.0000
  N   N4        1.0  0.9953745346299505  0.7900467177251974  0.06584604860754485  1.0000
  N   N5        1.0  0.7265353420230156  0.9689458874478074  0.6446377363822724  1.0000
  N   N6        1.0  0.27346465758789223  0.46894588768024453  0.8553622640055796  1.0000
  N   N7        1.0  0.2734646578727946  0.03105411208731836  0.3553622641094735  1.0000
  N   N8        1.0  0.7265353423079179  0.5310541124833564  0.14463773648616632  1.0000
  N   N9        1.0  0.22145273182221945  0.06701724949217558  0.5914819260820021  1.0000
  N   N10       1.0  0.7785472690972475  0.5670172492597385  0.9085180743058406  1.0000
  N   N11       1.0  0.7785472690735179  0.9329827506714254  0.4085180736604513  1.0000
  N   N12       1.0  0.22145273079856265  0.4329827502753873  0.09148192618590517  1.0000
  N   N13       1.0  0.5447980108920486  0.44415965538690844  0.6396362034172555  1.0000
  N   N14       1.0  0.4552019897187864  0.9441596557829466  0.860363796221304  1.0000
  N   N15       1.0  0.4552019886951296  0.5558403441482173  0.3603637963252071  1.0000
  N   N16       1.0  0.5447980111769509  0.055840344380654425  0.13963620352114936  1.0000
  O   O1        1.0  0.009524720330867717  0.6363638125550658  0.5393495206466306  1.0000
  O   O2        1.0  0.9904752792800401  0.1363638121590277  0.9606504797412213  1.0000
  O   O3        1.0  0.9904752795649425  0.3636361876085352  0.4606504798451153  1.0000
  O   O4        1.0  0.009524720615770104  0.8636361880045733  0.039349520750524475  1.0000
  O   O5        1.0  0.8529115265367998  0.742459082096089  0.5762402871904858  1.0000
  O   O6        1.0  0.14708847276547576  0.24245908170005095  0.9237597124480826  1.0000
  O   O7        1.0  0.14708847305037817  0.25754091806751195  0.42375971255197664  1.0000
  O   O8        1.0  0.8529115268217022  0.7575409178350748  0.07624028729437973  1.0000
  I   I1        1.0  0.4129214170376503  0.6009744409408537  0.6217940522104716  1.0000
  I   I2        1.0  0.5870785822646253  0.10097444117329087  0.8782059474280969  1.0000
  I   I3        1.0  0.5870785825495278  0.3990255592227472  0.3782059475319909  1.0000
  I   I4        1.0  0.4129214173225527  0.8990255589903101  0.12179405231436553  1.0000
