data_image0
_chemical_formula_structural       H60C70O6Br4
_chemical_formula_sum              "H60 C70 O6 Br4"
_cell_length_a       10.036848239601698
_cell_length_b       10.899408532013837
_cell_length_c       13.610005235340001
_cell_angle_alpha    73.6803649662412
_cell_angle_beta     76.78698944606663
_cell_angle_gamma    88.90442678238942

_space_group_name_H-M_alt    "P 1"
_space_group_IT_number       1

loop_
  _space_group_symop_operation_xyz
  'x, y, z'

loop_
  _atom_site_type_symbol
  _atom_site_label
  _atom_site_symmetry_multiplicity
  _atom_site_fract_x
  _atom_site_fract_y
  _atom_site_fract_z
  _atom_site_occupancy
  H   H1        1.0  0.567875234150962  0.5910806808306148  0.5976944385121019  1.0000
  H   H2        1.0  0.43212476569049985  0.4089193195167874  0.40230556133790923  1.0000
  H   H3        1.0  0.5082198592553718  0.3607297769778418  0.6275779781278993  1.0000
  H   H4        1.0  0.49178014134169995  0.6392702230981905  0.3724220225108049  1.0000
  H   H5        1.0  0.2668583437696743  0.2855204567139552  0.6616621944085617  1.0000
  H   H6        1.0  0.7331416560717876  0.7144795436334472  0.33833780544144954  1.0000
  H   H7        1.0  0.08066254363913065  0.4404165200052541  0.6620951535996604  1.0000
  H   H8        1.0  0.9193374562023311  0.5595834803421482  0.3379048462503508  1.0000
  H   H9        1.0  0.05413739416662017  0.6941102904275991  0.7179133429569936  1.0000
  H   H10       1.0  0.9458626056748415  0.30588970991980313  0.28208665689301754  1.0000
  H   H11       1.0  0.05933405323591327  0.7165465495126128  0.5832831373146643  1.0000
  H   H12       1.0  0.9406659463842877  0.283453449645817  0.416716863323376  1.0000
  H   H13       1.0  0.21136488359684868  0.8942396260214971  0.5357924443253694  1.0000
  H   H14       1.0  0.788635116244613  0.10576037432590511  0.4642075555246418  1.0000
  H   H15       1.0  0.14675962349413701  0.8354182735602479  0.7726853097843819  1.0000
  H   H16       1.0  0.8532403763473247  0.16458172678715444  0.22731469006562932  1.0000
  H   H17       1.0  0.37739547288986103  0.020126543337637623  0.6204696979785811  1.0000
  H   H18       1.0  0.6226045279474693  0.9798734570094297  0.37953030187293135  1.0000
  H   H19       1.0  0.8414731782161281  0.7565122814855221  0.6647169352128272  1.0000
  H   H20       1.0  0.15852682162533369  0.2434877188618803  0.33528306463718405  1.0000
  H   H21       1.0  0.8877980949826033  0.5425271933419512  0.7793870578883246  1.0000
  H   H22       1.0  0.11220190485885848  0.4574728070054511  0.22061294196168654  1.0000
  H   H23       1.0  0.694568512672627  0.4012193659474465  0.9039490701425172  1.0000
  H   H24       1.0  0.3054314871688349  0.5987806343999558  0.0960509297074939  1.0000
  H   H25       1.0  0.4554718461979587  0.46817759449809343  0.920513444714637  1.0000
  H   H26       1.0  0.544528153643503  0.5318224058493087  0.07948655513537424  1.0000
  H   H27       1.0  0.35269020003423435  0.7588207712664767  0.8671278283009041  1.0000
  H   H28       1.0  0.6473098005628374  0.24117922880955558  0.13287217233779997  1.0000
  H   H29       1.0  0.29590519450830904  0.6531366493266579  0.8063305070773857  1.0000
  H   H30       1.0  0.7040948053331526  0.34686335102074434  0.1936694927726255  1.0000
  H   H31       1.0  0.9244432196147133  0.8998248728140177  0.8004817362137289  1.0000
  H   H32       1.0  0.0755567802267484  0.10017512753338467  0.19951826363628217  1.0000
  H   H33       1.0  0.7594803416317187  0.07237846472535463  0.7767788613541299  1.0000
  H   H34       1.0  0.24051965820974308  0.9276215356220477  0.22322113849588135  1.0000
  H   H35       1.0  0.07174797961018706  0.3161094151823545  0.5295568434927581  1.0000
  H   H36       1.0  0.9282520200100138  0.6838905839760752  0.4704431571452822  1.0000
  H   H37       1.0  0.23252812957888216  0.14069289299043866  0.5492151041300578  1.0000
  H   H38       1.0  0.7674718702625795  0.8593071073569636  0.4507848957199533  1.0000
  H   H39       1.0  0.16795530146933535  0.9057469632456291  0.896833694311897  1.0000
  H   H40       1.0  0.8320446983721265  0.0942530371017732  0.10316630553811429  1.0000
  H   H41       1.0  0.19446416528018368  0.0018150421954165228  0.03673859351123238  1.0000
  H   H42       1.0  0.8055358345612782  0.9981849581519858  0.9632614063387788  1.0000
  H   H43       1.0  0.5509357172422272  0.22451520891171262  0.827466138068194  1.0000
  H   H44       1.0  0.44906428237797386  0.7754847902467171  0.17253386256984615  1.0000
  H   H45       1.0  0.5230394153951994  0.1300111297135969  0.6876594760497998  1.0000
  H   H46       1.0  0.4769605844462624  0.8699888706338053  0.31234052380021143  1.0000
  H   H47       1.0  0.4205212547994017  0.9265355306840499  0.46997222369116676  1.0000
  H   H48       1.0  0.5794787450420601  0.07346446966335222  0.5300277761588444  1.0000
  H   H49       1.0  0.18156905115043925  0.4411711740525212  0.9922926155571001  1.0000
  H   H50       1.0  0.8184309497058887  0.5588288253766086  0.007707384295249979  1.0000
  H   H51       1.0  0.12091799412299975  0.5015664464163478  0.8744638038100334  1.0000
  H   H52       1.0  0.8790820057184618  0.4984335539310546  0.12553619603997768  1.0000
  H   H53       1.0  0.2425282335933792  0.3825884203482988  0.8791118370091903  1.0000
  H   H54       1.0  0.7574717662480827  0.6174115799991036  0.12088816284082088  1.0000
  H   H55       1.0  0.9107439350303187  0.18950772304779598  0.9276347280289499  1.0000
  H   H56       1.0  0.08925606481114313  0.8104922772996063  0.07236527182106123  1.0000
  H   H57       1.0  0.08572740285148157  0.209746845191007  0.8540903189413602  1.0000
  H   H58       1.0  0.9142725980048463  0.7902531542381228  0.14590968091098996  1.0000
  H   H59       1.0  0.9731677572450976  0.3328770960814693  0.824822985399293  1.0000
  H   H60       1.0  0.026832242596364145  0.6671229042659329  0.17517701445071812  1.0000
  C   C1        1.0  0.36834666294851426  0.7854834793425354  0.6036835785965167  1.0000
  C   C2        1.0  0.6316533369119451  0.2145165200869295  0.39631642125433203  1.0000
  C   C3        1.0  0.3562403345361396  0.6430079441509822  0.6203638565660273  1.0000
  C   C4        1.0  0.643759666060932  0.3569920559250502  0.3796361440726768  1.0000
  C   C5        1.0  0.46111716991940094  0.5574653845281436  0.6158201463422461  1.0000
  C   C6        1.0  0.5388828299220609  0.4425346158192585  0.384179853507765  1.0000
  C   C7        1.0  0.4275643339171172  0.4285180129059785  0.6320438151383734  1.0000
  C   C8        1.0  0.5724356656840861  0.5714819871703889  0.3679561854988293  1.0000
  C   C9        1.0  0.29113848695713956  0.38630519399664937  0.65016467482774  1.0000
  C   C10       1.0  0.7088615128843222  0.6136948063507531  0.34983532502227127  1.0000
  C   C11       1.0  0.18651050730781563  0.4726544540908395  0.651951518375147  1.0000
  C   C12       1.0  0.8134894925336462  0.5273455462565627  0.3480484814748643  1.0000
  C   C13       1.0  0.2194051671875245  0.600990361295405  0.638656050007991  1.0000
  C   C14       1.0  0.780594832672935  0.39900963813405993  0.3613439498428577  1.0000
  C   C15       1.0  0.12382783801714167  0.7089304460306252  0.6397806671143373  1.0000
  C   C16       1.0  0.8761721618243203  0.2910695543167772  0.3602193327356739  1.0000
  C   C17       1.0  0.217681980314547  0.8298693193070401  0.6126136385982427  1.0000
  C   C18       1.0  0.7823180195269147  0.17013068104036227  0.38738636125176845  1.0000
  C   C19       1.0  0.19025217782867676  0.9043082063046128  0.6959911322891351  1.0000
  C   C20       1.0  0.8097478217725266  0.09569179377175453  0.3040088683480676  1.0000
  C   C21       1.0  0.3345938510764496  0.9493647659169134  0.696509019119676  1.0000
  C   C22       1.0  0.6654061497608806  0.050635234430154004  0.30349098073183645  1.0000
  C   C23       1.0  0.41529257927403607  0.8271676948465188  0.6958768864426529  1.0000
  C   C24       1.0  0.5847074205674258  0.17283230550088344  0.30412311340735826  1.0000
  C   C25       1.0  0.5701486018599488  0.8453711240049465  0.6703460861756125  1.0000
  C   C26       1.0  0.4298513989773817  0.15462887634212094  0.32965391367589997  1.0000
  C   C27       1.0  0.623509809753135  0.7297315485694253  0.7310765328058259  1.0000
  C   C28       1.0  0.3764901901073245  0.2702684508600394  0.26892346704502296  1.0000
  C   C29       1.0  0.7591405669342867  0.6932810370879016  0.7215668824414914  1.0000
  C   C30       1.0  0.24085943390304362  0.30671896325916587  0.27843311741002114  1.0000
  C   C31       1.0  0.7835747116432945  0.5747686799274768  0.7852175101181943  1.0000
  C   C32       1.0  0.2164252882171648  0.4252313195019878  0.21478248973265454  1.0000
  C   C33       1.0  0.6738990880398326  0.4948082526977205  0.8558541062498951  1.0000
  C   C34       1.0  0.32610091279749776  0.5051917476493469  0.14414589360161736  1.0000
  C   C35       1.0  0.5387017393870729  0.5321600030918014  0.8654941926317499  1.0000
  C   C36       1.0  0.46129826047338635  0.4678399963376632  0.13450580721909894  1.0000
  C   C37       1.0  0.513623263994459  0.6517932300152578  0.8032109299208632  1.0000
  C   C38       1.0  0.4863767356067443  0.3482067700611094  0.1967890707163396  1.0000
  C   C39       1.0  0.38129667522078386  0.7179906915248913  0.8001950229556595  1.0000
  C   C40       1.0  0.618703324399417  0.28200930763353854  0.1998049776823808  1.0000
  C   C41       1.0  0.09074551387005868  0.00866909174757922  0.6782374122044258  1.0000
  C   C42       1.0  0.9092544867270133  0.9913309083284533  0.32176258843427824  1.0000
  C   C43       1.0  0.9565465623318332  0.9909278012314009  0.7404201887770037  1.0000
  C   C44       1.0  0.043453437269370156  0.009072198844966427  0.25957981186019896  1.0000
  C   C45       1.0  0.8635679868706551  0.08789878584077618  0.7280192577627382  1.0000
  C   C46       1.0  0.13643201396667526  0.9121012145062913  0.2719807420887742  1.0000
  C   C47       1.0  0.9075402780383282  0.20458413436925518  0.6528686664309742  1.0000
  C   C48       1.0  0.09245972182213134  0.7954158650602096  0.34713133341987445  1.0000
  C   C49       1.0  0.03908927958422998  0.2240133868100533  0.5876040572797047  1.0000
  C   C50       1.0  0.9609107200169732  0.775986613266314  0.412395943357498  1.0000
  C   C51       1.0  0.12961170972194663  0.12528040625247475  0.6002033310861264  1.0000
  C   C52       1.0  0.8703882898982543  0.8747195929059549  0.3997966695519138  1.0000
  C   C53       1.0  0.3452158136510543  0.008912625291168612  0.7821728681908201  1.0000
  C   C54       1.0  0.6547841861904075  0.9910873750562338  0.21782713165919107  1.0000
  C   C55       1.0  0.2525983068863922  0.9751656077912371  0.880865858225215  1.0000
  C   C56       1.0  0.7474016927148112  0.024834392285130204  0.1191341424119876  1.0000
  C   C57       1.0  0.26680777832814534  0.028370119202683983  0.9602548595721887  1.0000
  C   C58       1.0  0.7331922215133163  0.9716298811447185  0.03974514027782257  1.0000
  C   C59       1.0  0.37526155995409893  0.11651639909816956  0.9406029327998787  1.0000
  C   C60       1.0  0.6247384398873628  0.8834836012492326  0.05939706705013251  1.0000
  C   C61       1.0  0.46771684399851393  0.15386821927900396  0.8429013378328717  1.0000
  C   C62       1.0  0.5322831558619455  0.8461317801504609  0.1570986620179769  1.0000
  C   C63       1.0  0.451666260560828  0.09986483127963022  0.7645150240653094  1.0000
  C   C64       1.0  0.5483337390403753  0.9001351687967372  0.23548497657189338  1.0000
  C   C65       1.0  0.15358521666140487  0.4158496685719925  0.9270355461725571  1.0000
  C   C66       1.0  0.8464147831800569  0.5841503317754096  0.07296445367745408  1.0000
  C   C67       1.0  0.03761937969559263  0.31604280218428815  0.9680393326239823  1.0000
  C   C68       1.0  0.9623806199246082  0.6839571969741415  0.03196066801405799  1.0000
  C   C69       1.0  0.9984397670322107  0.2577312635934615  0.8899320344848659  1.0000
  C   C70       1.0  0.0015602328092510977  0.7422687367539409  0.11006796536514521  1.0000
  O   O1        1.0  0.4565369109283451  0.8436898858378129  0.5041983324538379  1.0000
  O   O2        1.0  0.5434630889131167  0.15631011450958934  0.49580166739617326  1.0000
  O   O3        1.0  0.640175030904249  0.9394469108508172  0.607657692738642  1.0000
  O   O4        1.0  0.35982496893721283  0.06055308949658511  0.3923423071113692  1.0000
  O   O5        1.0  0.9758620709048346  0.28462009418223355  0.06147398833771595  1.0000
  O   O6        1.0  0.024137928936627105  0.7153799061651686  0.9385260115122953  1.0000
  Br  Br1       1.0  0.7882301350894113  0.3438405605793147  0.6409271062736871  1.0000
  Br  Br2       1.0  0.21176986475205048  0.6561594397680877  0.35907289357632394  1.0000
  Br  Br3       1.0  0.3964001731108076  0.18685818505909507  0.04984004848252682  1.0000
  Br  Br4       1.0  0.6035998264903958  0.8131418150172722  0.9501599521546759  1.0000
