data_image0
_chemical_formula_structural       H76C80N8O20S8Cl4
_chemical_formula_sum              "H76 C80 N8 O20 S8 Cl4"
_cell_length_a       26.441627374449077
_cell_length_b       6.192731067548187
_cell_length_c       12.720088481267052
_cell_angle_alpha    90.0
_cell_angle_beta     103.42079377533072
_cell_angle_gamma    90.0

_space_group_name_H-M_alt    "P 1"
_space_group_IT_number       1

loop_
  _space_group_symop_operation_xyz
  'x, y, z'

loop_
  _atom_site_type_symbol
  _atom_site_label
  _atom_site_symmetry_multiplicity
  _atom_site_fract_x
  _atom_site_fract_y
  _atom_site_fract_z
  _atom_site_occupancy
  H   H1        1.0  0.6903122123588943  0.6380630996082334  0.009203839000786378  1.0000
  H   H2        1.0  0.3096877875842423  0.6380630996082334  0.9907961607333116  1.0000
  H   H3        1.0  0.19031221260277714  0.13806310021767262  0.009203839046628236  1.0000
  H   H4        1.0  0.8096877873403594  0.13806310021767262  0.9907961606874696  1.0000
  H   H5        1.0  0.4878956153200028  0.7594068785974141  0.8790342270771176  1.0000
  H   H6        1.0  0.5121043850013366  0.7594068785974141  0.12096577265708008  1.0000
  H   H7        1.0  0.9878956151663163  0.25940687759205683  0.8790342278395052  1.0000
  H   H8        1.0  0.012104384867016687  0.25940687759205683  0.12096577270282206  1.0000
  H   H9        1.0  0.49191403292899216  0.8088582525808228  0.6866492147624057  1.0000
  H   H10       1.0  0.5080859670141445  0.8088582525808228  0.31335078497169216  1.0000
  H   H11       1.0  0.991914033063312  0.3088582531902621  0.6866492147166637  1.0000
  H   H12       1.0  0.008085966879824628  0.3088582531902621  0.31335078501743413  1.0000
  H   H13       1.0  0.654682573933304  0.633047898776608  0.7630070003846562  1.0000
  H   H14       1.0  0.34531742600983273  0.633047898776608  0.2369929993494418  1.0000
  H   H15       1.0  0.15468257417718678  0.1330478977712508  0.7630070004304981  1.0000
  H   H16       1.0  0.84531742576595  0.1330478977712508  0.23699299930359993  1.0000
  H   H17       1.0  0.6993314840149102  0.04785072317330923  0.9037237096765443  1.0000
  H   H18       1.0  0.30066851601842276  0.04785072317330923  0.09627629086578297  1.0000
  H   H19       1.0  0.19933148416859672  0.54785072256387  0.9037237089141569  1.0000
  H   H20       1.0  0.80066851577454  0.54785072256387  0.09627629081994112  1.0000
  H   H21       1.0  0.7209681155812824  0.31543193280850484  0.8856900635024431  1.0000
  H   H22       1.0  0.2790318844520505  0.31543193280850484  0.11430993703988426  1.0000
  H   H23       1.0  0.22096811544696257  0.8154319321990656  0.8856900635481851  1.0000
  H   H24       1.0  0.7790318845863704  0.8154319321990656  0.11430993699414227  1.0000
  H   H25       1.0  0.6564646006559586  0.23582365584271944  0.8213428804491641  1.0000
  H   H26       1.0  0.343535399287178  0.23582365584271944  0.1786571192849338  1.0000
  H   H27       1.0  0.15646460052163874  0.7358236552332802  0.821342880494906  1.0000
  H   H28       1.0  0.843535399421498  0.7358236552332802  0.17865711923919175  1.0000
  H   H29       1.0  0.5221043160215216  0.2398383384970791  0.08390587592873915  1.0000
  H   H30       1.0  0.47789568401181126  0.2398383384970791  0.9160941246135881  1.0000
  H   H31       1.0  0.022104315887201804  0.7398383395024363  0.08390587597448113  1.0000
  H   H32       1.0  0.9778956841461311  0.7398383395024363  0.916094124567846  1.0000
  H   H33       1.0  0.4621682156415263  0.21852050496611852  0.20580553882209984  1.0000
  H   H34       1.0  0.5378317843016104  0.21852050496611852  0.7941944609119981  1.0000
  H   H35       1.0  0.9621682157758462  0.7185205043566794  0.20580553877635785  1.0000
  H   H36       1.0  0.037831784167290446  0.7185205043566794  0.79419446095774  1.0000
  H   H37       1.0  0.4956792137875138  0.26143745664721657  0.4048748621636216  1.0000
  H   H38       1.0  0.5043207861556229  0.26143745664721657  0.5951251375704762  1.0000
  H   H39       1.0  0.9956792135436309  0.7614374560377772  0.4048748621177797  1.0000
  H   H40       1.0  0.004320786399505745  0.7614374560377772  0.5951251376163182  1.0000
  H   H41       1.0  0.5901207626521623  0.3310782072782214  0.4793427865751024  1.0000
  H   H42       1.0  0.4098792373811707  0.3310782072782214  0.5206572139672249  1.0000
  H   H43       1.0  0.09012076251784239  0.8310782066687823  0.4793427866208444  1.0000
  H   H44       1.0  0.9098792375154906  0.8310782066687823  0.5206572139214829  1.0000
  H   H45       1.0  0.6500044543420672  0.3552435179251197  0.3579456149065448  1.0000
  H   H46       1.0  0.34999554560106955  0.3552435179251197  0.6420543848275531  1.0000
  H   H47       1.0  0.15000445458594994  0.8552435189304769  0.3579456149523868  1.0000
  H   H48       1.0  0.8499955453571868  0.8552435189304769  0.6420543847817111  1.0000
  H   H49       1.0  0.6984669035310559  0.2868135093589997  0.2613962424018044  1.0000
  H   H50       1.0  0.30153309650227694  0.2868135093589997  0.7386037581405228  1.0000
  H   H51       1.0  0.19846690339673612  0.7868135087495605  0.26139624244754645  1.0000
  H   H52       1.0  0.8015330966365969  0.7868135087495605  0.7386037580947808  1.0000
  H   H53       1.0  0.2846225104200385  0.14081738581702338  0.2958512178742292  1.0000
  H   H54       1.0  0.7153774896132945  0.14081738581702338  0.7041487826680981  1.0000
  H   H55       1.0  0.7846225105543585  0.6408173868223805  0.29585121782848717  1.0000
  H   H56       1.0  0.2153774898571773  0.6408173868223805  0.70414878271394  1.0000
  H   H57       1.0  0.3480066256180371  0.12021655742508265  0.38520909600618236  1.0000
  H   H58       1.0  0.6519933744152959  0.12021655742508265  0.6147909045361449  1.0000
  H   H59       1.0  0.848006625752357  0.6202165568156434  0.3852090959604403  1.0000
  H   H60       1.0  0.15199337419077977  0.6202165568156434  0.6147909037736576  1.0000
  H   H61       1.0  0.2932292901587524  0.21423608510183004  0.43632449174824695  1.0000
  H   H62       1.0  0.7067707097843844  0.21423608510183004  0.563675507985851  1.0000
  H   H63       1.0  0.7932292902930722  0.7142360844923908  0.436324491702505  1.0000
  H   H64       1.0  0.20677070965006444  0.7142360844923908  0.5636755080315929  1.0000
  H   H65       1.0  0.29993202029017074  0.9633364560689572  0.5856446450992094  1.0000
  H   H66       1.0  0.7000679796529661  0.9633364560689572  0.41435535463488843  1.0000
  H   H67       1.0  0.7999320204244905  0.4633364566783964  0.5856446450534675  1.0000
  H   H68       1.0  0.2000679795186461  0.4633364566783964  0.41435535468063034  1.0000
  H   H69       1.0  0.3601864976783889  0.8525470963314876  0.5658333485257325  1.0000
  H   H70       1.0  0.6398135023549442  0.8525470963314876  0.4341666520165947  1.0000
  H   H71       1.0  0.8601864974345061  0.35254709532613043  0.5658333484798906  1.0000
  H   H72       1.0  0.1398135025988269  0.35254709532613043  0.4341666520624366  1.0000
  H   H73       1.0  0.3083026119859456  0.6742551362969404  0.5789624162877445  1.0000
  H   H74       1.0  0.6916973880473873  0.6742551362969404  0.42103758425458276  1.0000
  H   H75       1.0  0.8083026121202654  0.17425513690637967  0.5789624162420025  1.0000
  H   H76       1.0  0.19169738791306745  0.17425513690637967  0.42103758430032473  1.0000
  C   C1        1.0  0.7070164740456024  0.2577967866820462  0.10197110567837785  1.0000
  C   C2        1.0  0.2929835258975343  0.2577967866820462  0.8980288940557201  1.0000
  C   C3        1.0  0.2070164742894852  0.7577967876874033  0.1019711057242197  1.0000
  C   C4        1.0  0.7929835256536516  0.7577967876874033  0.8980288940098782  1.0000
  C   C5        1.0  0.6688386246433893  0.2949122656997714  0.9913902921462585  1.0000
  C   C6        1.0  0.3311613752997475  0.2949122656997714  0.008609707587839343  1.0000
  C   C7        1.0  0.16883862450906936  0.7949122650903322  0.9913902921920005  1.0000
  C   C8        1.0  0.8311613754340673  0.7949122650903322  0.008609707542097344  1.0000
  C   C9        1.0  0.6254697541421915  0.326489695410024  0.13606246483227377  1.0000
  C   C10       1.0  0.3745302458009451  0.326489695410024  0.8639375349018241  1.0000
  C   C11       1.0  0.12546975400787164  0.8264896948005848  0.13606246487801577  1.0000
  C   C12       1.0  0.8745302459352651  0.8264896948005848  0.8639375348560822  1.0000
  C   C13       1.0  0.6234670951119496  0.5594546093169324  0.08125674188880233  1.0000
  C   C14       1.0  0.37653290492138325  0.5594546093169324  0.918743258653525  1.0000
  C   C15       1.0  0.12346709535583252  0.05945460992637157  0.08125674193464417  1.0000
  C   C16       1.0  0.8765329046775003  0.05945460992637157  0.918743258607683  1.0000
  C   C17       1.0  0.6545110207206628  0.5413825424405793  0.9922236104938859  1.0000
  C   C18       1.0  0.34548897922247396  0.5413825424405793  0.007776389240212026  1.0000
  C   C19       1.0  0.15451102058634286  0.041382541435222096  0.9922236105396278  1.0000
  C   C20       1.0  0.8454889793567938  0.041382541435222096  0.007776389194470028  1.0000
  C   C21       1.0  0.615191034408179  0.6198746979529045  0.8946885099031541  1.0000
  C   C22       1.0  0.38480896553495775  0.6198746979529045  0.10531148983094389  1.0000
  C   C23       1.0  0.11519103465206174  0.11987469694754731  0.8946885099489957  1.0000
  C   C24       1.0  0.8848089652910749  0.11987469694754731  0.10531148978510203  1.0000
  C   C25       1.0  0.5686426875261197  0.6607695757116228  0.9249728067528185  1.0000
  C   C26       1.0  0.431357312417017  0.6607695757116228  0.07502719298127954  1.0000
  C   C27       1.0  0.06864268739179975  0.1607695747062656  0.9249728067985603  1.0000
  C   C28       1.0  0.931357312551337  0.1607695747062656  0.07502719293553754  1.0000
  C   C29       1.0  0.5238910534946641  0.7316830184576302  0.8538563497069848  1.0000
  C   C30       1.0  0.4761089465386688  0.7316830184576302  0.1461436508353426  1.0000
  C   C31       1.0  0.023891053648350653  0.23168301906706945  0.8538563489445972  1.0000
  C   C32       1.0  0.9761089466729888  0.23168301906706945  0.14614365078960057  1.0000
  C   C33       1.0  0.5264540462995979  0.759303077868303  0.7463107248805059  1.0000
  C   C34       1.0  0.473545953733735  0.759303077868303  0.2536892756618214  1.0000
  C   C35       1.0  0.02645404607508183  0.25930307847774225  0.7463107241180186  1.0000
  C   C36       1.0  0.9735459538680549  0.25930307847774225  0.25368927561607935  1.0000
  C   C37       1.0  0.5729766398181879  0.7232260679734661  0.7151606196704925  1.0000
  C   C38       1.0  0.42702336012494874  0.7232260679734661  0.2848393800636054  1.0000
  C   C39       1.0  0.0729766396838681  0.2232260685829053  0.7151606197162346  1.0000
  C   C40       1.0  0.927023360349465  0.2232260685829053  0.28483938082609284  1.0000
  C   C41       1.0  0.6183705225726048  0.655021575417127  0.7882161274798366  1.0000
  C   C42       1.0  0.3816294773705319  0.655021575417127  0.21178387225426126  1.0000
  C   C43       1.0  0.11837052281648765  0.1550215744117698  0.7882161275256785  1.0000
  C   C44       1.0  0.8816294771266491  0.1550215744117698  0.21178387220841938  1.0000
  C   C45       1.0  0.6875087190700889  0.2179730841330446  0.8948367929116092  1.0000
  C   C46       1.0  0.312491280963244  0.2179730841330446  0.10516320763071808  1.0000
  C   C47       1.0  0.1875087193139717  0.7179730835236053  0.894836792957451  1.0000
  C   C48       1.0  0.8124912807193613  0.7179730835236053  0.10516320758487624  1.0000
  C   C49       1.0  0.5901629469978065  0.2996179423523081  0.21187399204917878  1.0000
  C   C50       1.0  0.40983705332353293  0.2996179423523081  0.7881260076850188  1.0000
  C   C51       1.0  0.09016294686348661  0.7996179417428689  0.21187399209492078  1.0000
  C   C52       1.0  0.9098370530796501  0.7996179417428689  0.7881260076391772  1.0000
  C   C53       1.0  0.53714161934528  0.2593846531488348  0.17075838079748393  1.0000
  C   C54       1.0  0.46285838059785667  0.2593846531488348  0.829241618936614  1.0000
  C   C55       1.0  0.03714161921096014  0.7593846525393956  0.17075838084322592  1.0000
  C   C56       1.0  0.9628583807321766  0.7593846525393956  0.8292416188908719  1.0000
  C   C57       1.0  0.5033971737403894  0.2465299693055209  0.2398224519835831  1.0000
  C   C58       1.0  0.4966028266711463  0.2465299693055209  0.760177548558844  1.0000
  C   C59       1.0  0.0033971736060694757  0.7465299686960817  0.23982245202932512  1.0000
  C   C60       1.0  0.9966028264272635  0.7465299686960817  0.7601775485130021  1.0000
  C   C61       1.0  0.5222430220787317  0.2715339680761804  0.3510432795668817  1.0000
  C   C62       1.0  0.477756977864405  0.2715339680761804  0.6489567201672162  1.0000
  C   C63       1.0  0.02224302232261453  0.7715339674667411  0.35104327961272364  1.0000
  C   C64       1.0  0.9777569776205223  0.7715339674667411  0.6489567201213743  1.0000
  C   C65       1.0  0.5751100003152482  0.30959353621003693  0.39267124756371635  1.0000
  C   C66       1.0  0.4248899996278886  0.30959353621003693  0.6073287521703815  1.0000
  C   C67       1.0  0.07511000055913089  0.8095935372153941  0.39267124760955824  1.0000
  C   C68       1.0  0.9248899993840057  0.8095935372153941  0.6073287521245396  1.0000
  C   C69       1.0  0.6089625359381377  0.32461857265762134  0.3236518202909918  1.0000
  C   C70       1.0  0.39103746400499906  0.32461857265762134  0.6763481794431061  1.0000
  C   C71       1.0  0.10896253580381775  0.8246185736629785  0.32365182033673384  1.0000
  C   C72       1.0  0.891037464139319  0.8246185736629785  0.676348179397364  1.0000
  C   C73       1.0  0.30600851462559103  0.10733479829008058  0.37873803333622447  1.0000
  C   C74       1.0  0.6939914853175456  0.10733479829008058  0.6212619663978735  1.0000
  C   C75       1.0  0.8060085147599109  0.6073347992954378  0.37873803329048245  1.0000
  C   C76       1.0  0.1939914855614285  0.6073347992954378  0.6212619664437153  1.0000
  C   C77       1.0  0.31793793488141997  0.8317878660988566  0.5494414548073825  1.0000
  C   C78       1.0  0.6820620651519129  0.8317878660988566  0.4505585457349448  1.0000
  C   C79       1.0  0.8179379350157399  0.3317878650934994  0.5494414547616405  1.0000
  C   C80       1.0  0.18206206501759306  0.3317878650934994  0.45055854578068677  1.0000
  N   N1        1.0  0.6798765641541368  0.2790301292195674  0.17978775387773838  1.0000
  N   N2        1.0  0.3201234357889999  0.2790301292195674  0.8202122458563594  1.0000
  N   N3        1.0  0.1798765640198169  0.7790301286101282  0.1797877539234804  1.0000
  N   N4        1.0  0.8201234359233199  0.7790301286101282  0.8202122458106176  1.0000
  N   N5        1.0  0.64561170783403  0.7226056809490508  0.17109390470958843  1.0000
  N   N6        1.0  0.35438829210910666  0.7226056809490508  0.8289060950245095  1.0000
  N   N7        1.0  0.1456117080779128  0.22260567994369365  0.1710939047554303  1.0000
  N   N8        1.0  0.8543882922434266  0.22260567994369365  0.8289060949787674  1.0000
  O   O1        1.0  0.7542086670398518  0.225167019977192  0.11627456547411497  1.0000
  O   O2        1.0  0.24579133290328486  0.225167019977192  0.8837254342599828  1.0000
  O   O3        1.0  0.2542086669055319  0.7251670209825491  0.11627456551985697  1.0000
  O   O4        1.0  0.745791333127801  0.7251670209825491  0.8837254350224703  1.0000
  O   O5        1.0  0.5720115334806456  0.6230176747409643  0.03375554067093737  1.0000
  O   O6        1.0  0.42798846646249106  0.6230176747409643  0.9662444590631605  1.0000
  O   O7        1.0  0.07201153334632567  0.12301767373560699  0.03375554071667937  1.0000
  O   O8        1.0  0.927988466596811  0.12301767373560699  0.9662444590174186  1.0000
  O   O9        1.0  0.6145880145402566  0.8033947616539684  0.21863433975629648  1.0000
  O   O10       1.0  0.38541198540288013  0.8033947616539684  0.7813656599778015  1.0000
  O   O11       1.0  0.11458801440593665  0.3033947622634075  0.21863433980203845  1.0000
  O   O12       1.0  0.8854119855372  0.3033947622634075  0.7813656599320594  1.0000
  O   O13       1.0  0.6933352963354426  0.7485618153664363  0.19493771723783962  1.0000
  O   O14       1.0  0.3066647036978905  0.7485618153664363  0.8050622833044876  1.0000
  O   O15       1.0  0.19333529620112255  0.2485618159758756  0.19493771728358167  1.0000
  O   O16       1.0  0.8066647038322105  0.2485618159758756  0.8050622832587456  1.0000
  O   O17       1.0  0.2326491299523056  0.8228895707588949  0.39449119680416816  1.0000
  O   O18       1.0  0.7673508699908312  0.8228895707588949  0.6055088029299297  1.0000
  O   O19       1.0  0.7326491300866256  0.3228895713683341  0.39449119675842614  1.0000
  O   O20       1.0  0.2673508698565112  0.3228895713683341  0.6055088029756718  1.0000
  S   S1        1.0  0.6097624115842007  0.16021141063256417  0.01207097479313364  1.0000
  S   S2        1.0  0.3902375883589359  0.16021141063256417  0.9879290249409642  1.0000
  S   S3        1.0  0.10976241144988089  0.6602114116379213  0.012070974838875637  1.0000
  S   S4        1.0  0.8902375884932557  0.6602114116379213  0.9879290248952223  1.0000
  S   S5        1.0  0.2915163480083898  0.8311317549330913  0.4063150472235801  1.0000
  S   S6        1.0  0.7084836519347468  0.8311317549330913  0.5936849525105178  1.0000
  S   S7        1.0  0.791516348232906  0.3311317555425305  0.4063150479860675  1.0000
  S   S8        1.0  0.20848365217862969  0.3311317555425305  0.5936849525563597  1.0000
  Cl  Cl1       1.0  0.5735661391045873  0.7626791876608888  0.5796547999636095  1.0000
  Cl  Cl2       1.0  0.4264338608385494  0.7626791876608888  0.42034519977048845  1.0000
  Cl  Cl3       1.0  0.07356613897026745  0.2626791882703281  0.5796548000093514  1.0000
  Cl  Cl4       1.0  0.9264338610630655  0.2626791882703281  0.4203452005329758  1.0000
