data_image0
_chemical_formula_structural       H32C44N8O16
_chemical_formula_sum              "H32 C44 N8 O16"
_cell_length_a       7.125769794465256
_cell_length_b       10.570043910268648
_cell_length_c       13.43120002797307
_cell_angle_alpha    90.0
_cell_angle_beta     100.45593885810804
_cell_angle_gamma    90.0

_space_group_name_H-M_alt    "P 1"
_space_group_IT_number       1

loop_
  _space_group_symop_operation_xyz
  'x, y, z'

loop_
  _atom_site_type_symbol
  _atom_site_label
  _atom_site_symmetry_multiplicity
  _atom_site_fract_x
  _atom_site_fract_y
  _atom_site_fract_z
  _atom_site_occupancy
  H   H1        1.0  0.48374101208202613  0.37712131035969243  0.060262192634612875  1.0000
  H   H2        1.0  0.01625898851013345  0.8771213108200193  0.439737807046465  1.0000
  H   H3        1.0  0.5162589891164657  0.6228786896148916  0.9397378074734056  1.0000
  H   H4        1.0  0.9837410112613749  0.12287869010063449  0.5602621929315554  1.0000
  H   H5        1.0  0.36252963293376633  0.5630537517652314  0.2582073840380062  1.0000
  H   H6        1.0  0.1374703662314099  0.06305375225097438  0.24179261551307343  1.0000
  H   H7        1.0  0.6374703668377423  0.4369462482093525  0.7417926159400142  1.0000
  H   H8        1.0  0.8625296335400986  0.9369462477236096  0.7582073844649468  1.0000
  H   H9        1.0  0.7081591104978531  0.34064841078871977  0.3134497623408745  1.0000
  H   H10       1.0  0.7918408892528064  0.8406484112490467  0.18655023734524226  1.0000
  H   H11       1.0  0.2918408892736555  0.6593515891858642  0.6865502376371458  1.0000
  H   H12       1.0  0.20815911051870215  0.1593515887255373  0.8134497626327782  1.0000
  H   H13       1.0  0.5749626348616674  0.1568884825907835  0.39903080388495715  1.0000
  H   H14       1.0  0.9250373648889918  0.6568884830511105  0.10096919580115964  1.0000
  H   H15       1.0  0.42503736490984095  0.8431115173838004  0.6009691960930632  1.0000
  H   H16       1.0  0.07496263488251666  0.3431115169234735  0.8990308041768608  1.0000
  H   H17       1.0  0.4785123454412907  0.07072012626870924  0.558550646415665  1.0000
  H   H18       1.0  0.021487654351066914  0.5707201257829663  0.9414493538542591  1.0000
  H   H19       1.0  0.5214876543302177  0.9292798737058747  0.4414493535623554  1.0000
  H   H20       1.0  0.9785123454204415  0.42927987419161767  0.05855064612376138  1.0000
  H   H21       1.0  0.5313354991559455  0.20464549233315552  0.7144815685545649  1.0000
  H   H22       1.0  0.9686645012077225  0.7046454927934824  0.7855184311045333  1.0000
  H   H23       1.0  0.4686645006155629  0.7953545076414285  0.2855184314234554  1.0000
  H   H24       1.0  0.031335498563785966  0.2953545071811015  0.21448156887348718  1.0000
  H   H25       1.0  0.8568304223909358  0.6846041541010099  0.484827758652499  1.0000
  H   H26       1.0  0.6431695773597237  0.18460415364068306  0.015172241033617792  1.0000
  H   H27       1.0  0.1431695773805728  0.31539584587357394  0.5151722413255214  1.0000
  H   H28       1.0  0.35683042241178486  0.8153958463339009  0.9848277589444026  1.0000
  H   H29       1.0  0.7679172777594646  0.5869672881843603  0.635682022163956  1.0000
  H   H30       1.0  0.7320827226042036  0.08696728772403334  0.8643179774951423  1.0000
  H   H31       1.0  0.23208272201204388  0.41303271179022366  0.36431797781406444  1.0000
  H   H32       1.0  0.2679172785942884  0.9130327122505507  0.13568202261287635  1.0000
  C   C1        1.0  0.4366934511970806  0.5638653955079471  0.12394249588046412  1.0000
  C   C2        1.0  0.06330654939507896  0.06386539504762026  0.3760575038006137  1.0000
  C   C3        1.0  0.5633065500014112  0.43613460446663677  0.8760575042275545  1.0000
  C   C4        1.0  0.9366934503764295  0.9361346049269637  0.6239424961774066  1.0000
  C   C5        1.0  0.4816227337900141  0.4781802368001268  0.04402921695182877  1.0000
  C   C6        1.0  0.01837726680214552  0.9781802363143837  0.455970782729249  1.0000
  C   C7        1.0  0.5183772659814945  0.5218197631744572  0.9559707830261915  1.0000
  C   C8        1.0  0.9816227343963463  0.02181976366020017  0.5440292173787696  1.0000
  C   C9        1.0  0.787330302883324  0.5158923005705287  0.3915497960015964  1.0000
  C   C10       1.0  0.7126696982943187  0.015892301056271634  0.10845020381451859  1.0000
  C   C11       1.0  0.21266969688818457  0.48410769940405524  0.608450203976424  1.0000
  C   C12       1.0  0.287330302904173  0.9841076989183124  0.8915497962935  1.0000
  C   C13       1.0  0.7211438190044448  0.392901976118134  0.38412200024830856  1.0000
  C   C14       1.0  0.7788561807462144  0.8929019765784608  0.11587799943780822  1.0000
  C   C15       1.0  0.27885618076706364  0.60709802385645  0.6158779997297119  1.0000
  C   C16       1.0  0.22114381902529398  0.10709802339612308  0.8841220005402122  1.0000
  C   C17       1.0  0.6681544054342138  0.3361141618861736  0.47015838475149674  1.0000
  C   C18       1.0  0.8318455943306183  0.8361141623465006  0.029841615680483016  1.0000
  C   C19       1.0  0.3318455943372947  0.6638858380884103  0.5298416152265237  1.0000
  C   C20       1.0  0.16815440544089028  0.16388583762808343  0.9701583842975374  1.0000
  C   C21       1.0  0.5917081689467057  0.21193384426943826  0.4688615910426582  1.0000
  C   C22       1.0  0.9082918308039536  0.7119338437836953  0.0311384086434586  1.0000
  C   C23       1.0  0.4082918308248027  0.7880661566512156  0.5311384089353622  1.0000
  C   C24       1.0  0.09170816896755493  0.28806615619088866  0.9688615913345617  1.0000
  C   C25       1.0  0.5405388313749627  0.16441460837373478  0.5556383430488723  1.0000
  C   C26       1.0  0.9594611675758946  0.6644146078879918  0.9443616572260907  1.0000
  C   C27       1.0  0.45946116839654577  0.8355853916008492  0.44436165692914814  1.0000
  C   C28       1.0  0.04053883219561384  0.3355853920865921  0.055638342751929734  1.0000
  C   C29       1.0  0.5693537852256175  0.23910768502528995  0.6441611030360423  1.0000
  C   C30       1.0  0.9306462151522231  0.7391076854856168  0.8558388973689188  1.0000
  C   C31       1.0  0.4306462145458909  0.760892314949294  0.35583889694197796  1.0000
  C   C32       1.0  0.06935378604626867  0.2608923144889671  0.14416110273909985  1.0000
  C   C33       1.0  0.8032851144243277  0.5881207971104826  0.4810394472025309  1.0000
  C   C34       1.0  0.6967148853405042  0.08812079665015568  0.018960553229448836  1.0000
  C   C35       1.0  0.19671488534718068  0.4118792028641014  0.5189605527754895  1.0000
  C   C36       1.0  0.30328511443100425  0.9118792033244283  0.9810394467485716  1.0000
  C   C37       1.0  0.7547926569909491  0.5332765850219383  0.5655772443563236  1.0000
  C   C38       1.0  0.7452073433868917  0.033276584561611366  0.9344227560486376  1.0000
  C   C39       1.0  0.24520734278055942  0.4667234158987155  0.43442275562169685  1.0000
  C   C40       1.0  0.25479265638461684  0.9667234154129727  0.06557724392938277  1.0000
  C   C41       1.0  0.688002145969172  0.40679500828021775  0.5624158146177048  1.0000
  C   C42       1.0  0.8119978544086687  0.9067950077944748  0.9375841857872563  1.0000
  C   C43       1.0  0.3119978552293198  0.5932049916943662  0.43758418549031375  1.0000
  C   C44       1.0  0.1880021453628398  0.09320499218010918  0.0624158141907641  1.0000
  N   N1        1.0  0.6402410046423826  0.355245293385405  0.6475082732291993  1.0000
  N   N2        1.0  0.8597589957354581  0.8552452928996621  0.8524917271757619  1.0000
  N   N3        1.0  0.35975899512912585  0.6447547065891789  0.3524917267488211  1.0000
  N   N4        1.0  0.1402410040360504  0.14475470707492188  0.14750827280225845  1.0000
  N   N5        1.0  0.845546940479961  0.5743127418896136  0.3033101910809495  1.0000
  N   N6        1.0  0.6544530592706983  0.07431274142928665  0.1966898086051673  1.0000
  N   N7        1.0  0.15445305929154743  0.42568725808497043  0.6966898088970709  1.0000
  N   N8        1.0  0.34554694050081025  0.9256872585452973  0.8033101913728532  1.0000
  O   O1        1.0  0.45011966319783087  0.6805035448350548  0.12086029164811815  1.0000
  O   O2        1.0  0.04988033739432862  0.18050354437472796  0.37913970803295965  1.0000
  O   O3        1.0  0.5498803380006608  0.3194964551395291  0.8791397084599004  1.0000
  O   O4        1.0  0.9501196623771798  0.819496455599856  0.6208602919450608  1.0000
  O   O5        1.0  0.38148465228410217  0.5001284540421215  0.19900536677206387  1.0000
  O   O6        1.0  0.1185153468810741  0.00012845452786444393  0.3009946327790157  1.0000
  O   O7        1.0  0.6185153474874063  0.4998715459324624  0.8009946332059564  1.0000
  O   O8        1.0  0.8814846528904343  0.9998715463927893  0.6990053671990047  1.0000
  O   O9        1.0  0.8582923789299987  0.5062826394506423  0.22916016009059023  1.0000
  O   O10       1.0  0.6417076208348333  0.006282639936385295  0.27083984034138947  1.0000
  O   O11       1.0  0.1417076208415098  0.49371736052394166  0.7708398398874302  1.0000
  O   O12       1.0  0.3582923789366752  0.9937173600381987  0.7291601596366308  1.0000
  O   O13       1.0  0.8813641599819868  0.6896217586114771  0.3071041544307358  1.0000
  O   O14       1.0  0.6186358397686726  0.18962175815115023  0.19289584525538095  1.0000
  O   O15       1.0  0.11863583978952172  0.3103782413631068  0.6928958455472846  1.0000
  O   O16       1.0  0.38136416000283596  0.8103782418234337  0.8071041547226395  1.0000
