data_image0
_chemical_formula_structural       H20C48N12F16I8
_chemical_formula_sum              "H20 C48 N12 F16 I8"
_cell_length_a       11.4027313349053
_cell_length_b       14.831252958058371
_cell_length_c       8.799987223032787
_cell_angle_alpha    90.0
_cell_angle_beta     110.74465614516767
_cell_angle_gamma    90.0

_space_group_name_H-M_alt    "P 1"
_space_group_IT_number       1

loop_
  _space_group_symop_operation_xyz
  'x, y, z'

loop_
  _atom_site_type_symbol
  _atom_site_label
  _atom_site_symmetry_multiplicity
  _atom_site_fract_x
  _atom_site_fract_y
  _atom_site_fract_z
  _atom_site_occupancy
  H   H1        1.0  0.19137130751990697  0.6089999655148793  0.2698058305169372  1.0000
  H   H2        1.0  0.8086286926684931  0.10899996544942199  0.23019416866954262  1.0000
  H   H3        1.0  0.8086286923846538  0.39100003461603533  0.7301941697226875  1.0000
  H   H4        1.0  0.19137130690475457  0.8910000346814927  0.7698058303549373  1.0000
  H   H5        1.0  0.0407424426513417  0.5636514806699381  0.41939858489416354  1.0000
  H   H6        1.0  0.9592575578683714  0.06365148060448074  0.080601415507461  1.0000
  H   H7        1.0  0.959257557253219  0.4363485194609766  0.5806014153454611  1.0000
  H   H8        1.0  0.040742442036189326  0.9363485195264339  0.9193985847321636  1.0000
  H   H9        1.0  0.07702289534169525  0.25782426075622666  0.6311865452336078  1.0000
  H   H10       1.0  0.9229771048250184  0.7578242608216841  0.8688134548451978  1.0000
  H   H11       1.0  0.9229771045628654  0.742175739374688  0.3688134550060167  1.0000
  H   H12       1.0  0.07702289507954238  0.24217573930923064  0.13118654539442676  1.0000
  H   H13       1.0  0.25411434286457124  0.1967103108719372  0.5604212891966902  1.0000
  H   H14       1.0  0.7458856564248371  0.6967103109373946  0.9395787108809344  1.0000
  H   H15       1.0  0.7458856570399895  0.8032896892589776  0.43957871104293433  1.0000
  H   H16       1.0  0.2541143431484107  0.3032896891935201  0.0604212881435455  1.0000
  H   H17       1.0  0.35886980866028617  0.29265937492095984  0.40961891070027023  1.0000
  H   H18       1.0  0.6411301915281139  0.7926593749864171  0.0903810884862096  1.0000
  H   H19       1.0  0.6411301917902668  0.7073406252099548  0.5903810883253907  1.0000
  H   H20       1.0  0.35886980837644683  0.20734062514449747  0.909618911753415  1.0000
  C   C1        1.0  0.19047518704021904  0.5430705762201794  0.32257438282175777  1.0000
  C   C2        1.0  0.8095248122708757  0.04307057615472207  0.177425616363541  1.0000
  C   C3        1.0  0.8095248128643417  0.45692942391073527  0.6774256174178669  1.0000
  C   C4        1.0  0.19047518730237198  0.9569294239761926  0.822574382660939  1.0000
  C   C5        1.0  0.13386526408401825  0.4335382059886173  0.45003041254822157  1.0000
  C   C6        1.0  0.8661347352270765  0.9335382060540747  0.0499695866370772  1.0000
  C   C7        1.0  0.8661347354892295  0.5664617941422974  0.5499695864762584  1.0000
  C   C8        1.0  0.1338652646774842  0.06646179407684003  0.9500304136025475  1.0000
  C   C9        1.0  0.12205185568105602  0.2993878543206575  0.5654831408142977  1.0000
  C   C10       1.0  0.8779481444856576  0.7993878543861148  0.9345168592645079  1.0000
  C   C11       1.0  0.8779481438921917  0.7006121451360053  0.4345168582101821  1.0000
  C   C12       1.0  0.12205185541890315  0.200612145070548  0.06548314097511664  1.0000
  C   C13       1.0  0.22221593142702573  0.26524900971785564  0.5252981166502501  1.0000
  C   C14       1.0  0.7777840687396879  0.7652490097833129  0.9747018834285556  1.0000
  C   C15       1.0  0.7777840684775351  0.734750990413059  0.47470188358937454  1.0000
  C   C16       1.0  0.22221593083355984  0.23475099034760172  0.02529811559592422  1.0000
  C   C17       1.0  0.28081323399665514  0.3180206624037972  0.44161437404347254  1.0000
  C   C18       1.0  0.7191867656457527  0.8180206617950028  0.05838562635697091  1.0000
  C   C19       1.0  0.7191867659079055  0.6819793377271174  0.5583856261961521  1.0000
  C   C20       1.0  0.280813234258808  0.1819793376616601  0.9416143738826537  1.0000
  C   C21       1.0  0.2344880593213078  0.40535323461889394  0.40191203510081597  1.0000
  C   C22       1.0  0.7655119411984053  0.9053532346843512  0.09808796530080853  1.0000
  C   C23       1.0  0.7655119414605582  0.5946467655120208  0.5980879651399897  1.0000
  C   C24       1.0  0.23448805870615544  0.09464676544656339  0.9019120349388161  1.0000
  C   C25       1.0  0.6465747464189007  0.43751564000358695  0.21224131335948085  1.0000
  C   C26       1.0  0.3534252541008125  0.9375156400690442  0.2877586870421437  1.0000
  C   C27       1.0  0.35342525348566006  0.5624843601273277  0.7877586868801437  1.0000
  C   C28       1.0  0.6465747466810535  0.06248436006187042  0.712241313198662  1.0000
  C   C29       1.0  0.696586678589695  0.3504358535787806  0.21731102482700987  1.0000
  C   C30       1.0  0.30341332105271285  0.8504358536442379  0.28268897557343364  1.0000
  C   C31       1.0  0.30341332131486576  0.6495641465521341  0.7826889754126147  1.0000
  C   C32       1.0  0.6965866788518479  0.14956414648667674  0.717311024666191  1.0000
  C   C33       1.0  0.8046802705894633  0.33838454405655405  0.17999473420160386  1.0000
  C   C34       1.0  0.1953197290529445  0.8383845441220114  0.32000526619883957  1.0000
  C   C35       1.0  0.19531972931509742  0.6616154560743606  0.8200052660380207  1.0000
  C   C36       1.0  0.8046802708516161  0.1616154560089033  0.679994734040785  1.0000
  C   C37       1.0  0.8623483866737189  0.4107255602224909  0.13364057835901202  1.0000
  C   C38       1.0  0.13765161296868883  0.9107255602879482  0.36635942204143146  1.0000
  C   C39       1.0  0.13765161323084174  0.5892744399084238  0.8663594218806125  1.0000
  C   C40       1.0  0.862348386935872  0.08927443984296643  0.6336405781981931  1.0000
  C   C41       1.0  0.8133889344705584  0.4971121577421472  0.12829196291710357  1.0000
  C   C42       1.0  0.1866110648405364  0.9971121578076045  0.37170803626819526  1.0000
  C   C43       1.0  0.1866110651026893  0.5028878423887675  0.8717080361073763  1.0000
  C   C44       1.0  0.8133889350640243  0.002887842323310162  0.6282919639714294  1.0000
  C   C45       1.0  0.706584483351052  0.5093547734209084  0.16815903786638897  1.0000
  C   C46       1.0  0.29341551716866116  0.009354773355451117  0.33184096253523554  1.0000
  C   C47       1.0  0.2934155165535088  0.4906452267100062  0.8318409623732357  1.0000
  C   C48       1.0  0.7065844836132049  0.9906452267754635  0.6681590377055701  1.0000
  N   N1        1.0  0.26720867008123345  0.47596823814972905  0.32170135886872053  1.0000
  N   N2        1.0  0.7327913292298613  0.9759682382151864  0.17829864031657822  1.0000
  N   N3        1.0  0.7327913298233273  0.5240317619811856  0.6782986413709041  1.0000
  N   N4        1.0  0.26720867034338636  0.02403176191572831  0.8217013587079016  1.0000
  N   N5        1.0  0.10854117258728327  0.5214986503077321  0.39838416676088845  1.0000
  N   N6        1.0  0.8914588276011168  0.02149865024227477  0.10161583242559137  1.0000
  N   N7        1.0  0.8914588278632697  0.4785013498231826  0.6016158322647726  1.0000
  N   N8        1.0  0.10854117230344386  0.9785013498886399  0.8983841678140332  1.0000
  N   N9        1.0  0.07624991161328946  0.3835290690601687  0.5288868069154669  1.0000
  N   N10       1.0  0.9237500885534242  0.883529069125626  0.971113193163339  1.0000
  N   N11       1.0  0.9237500882912714  0.6164709303964941  0.4711131933241578  1.0000
  N   N12       1.0  0.07624991135113655  0.1164709303310368  0.028886807076285687  1.0000
  F   F1        1.0  0.857426054659344  0.25584233043091126  0.18484644360146443  1.0000
  F   F2        1.0  0.14257394586036912  0.7558423304963685  0.3151535568001601  1.0000
  F   F3        1.0  0.14257394524521672  0.7441576697000034  0.8151535566381601  1.0000
  F   F4        1.0  0.8574260549214969  0.24415766963454608  0.6848464434406455  1.0000
  F   F5        1.0  0.9645071850560963  0.39722506969979315  0.09281501654985347  1.0000
  F   F6        1.0  0.03549281546361672  0.8972250697652504  0.40718498385177104  1.0000
  F   F7        1.0  0.03549281484846435  0.6027749304311215  0.9071849836897711  1.0000
  F   F8        1.0  0.9645071844409442  0.10277493036566418  0.5928150163878536  1.0000
  F   F9        1.0  0.8697642944777139  0.5672318416920423  0.08488392782573229  1.0000
  F   F10       1.0  0.13023570604199936  0.06723184162658495  0.4151160725758922  1.0000
  F   F11       1.0  0.13023570542684695  0.43276815843887234  0.9151160724138924  1.0000
  F   F12       1.0  0.8697642947398667  0.9327681585043297  0.5848839276649135  1.0000
  F   F13       1.0  0.6614660593900358  0.5945183299708438  0.1608107988236287  1.0000
  F   F14       1.0  0.3385339411296773  0.09451832990538647  0.33918920157799587  1.0000
  F   F15       1.0  0.33853394139183024  0.4054816701600709  0.839189201417177  1.0000
  F   F16       1.0  0.6614660587748834  0.9054816702255282  0.6608107986616287  1.0000
  I   I1        1.0  0.4804105017569728  0.46364321877901693  0.2619759088357337  1.0000
  I   I2        1.0  0.5195894984314273  0.9636432181702225  0.23802409035074615  1.0000
  I   I3        1.0  0.519589497816275  0.5363567813518977  0.7380240901887463  1.0000
  I   I4        1.0  0.4804105011418203  0.036356781286440376  0.7619759086737337  1.0000
  I   I5        1.0  0.6103362821422784  0.23460889850910635  0.2669968104491491  1.0000
  I   I6        1.0  0.3896637183774348  0.7346088985745637  0.23300318995247546  1.0000
  I   I7        1.0  0.3896637177622825  0.7653911009475565  0.7330031897904756  1.0000
  I   I8        1.0  0.6103362824044312  0.2653911008820991  0.7669968102883302  1.0000
