data_image0
_chemical_formula_structural       H32C44N4S4I8
_chemical_formula_sum              "H32 C44 N4 S4 I8"
_cell_length_a       8.347705244521533
_cell_length_b       11.118763478875866
_cell_length_c       14.871404710479135
_cell_angle_alpha    100.34801539464819
_cell_angle_beta     105.4809740928134
_cell_angle_gamma    100.37505182580512

_space_group_name_H-M_alt    "P 1"
_space_group_IT_number       1

loop_
  _space_group_symop_operation_xyz
  'x, y, z'

loop_
  _atom_site_type_symbol
  _atom_site_label
  _atom_site_symmetry_multiplicity
  _atom_site_fract_x
  _atom_site_fract_y
  _atom_site_fract_z
  _atom_site_occupancy
  H   H1        1.0  0.5615832320073045  0.6680231719996488  0.42589175800667106  1.0000
  H   H2        1.0  0.43841676764022597  0.33197682752543556  0.5741082422335729  1.0000
  H   H3        1.0  0.3406407867594199  0.7849716740081453  0.4554200976091429  1.0000
  H   H4        1.0  0.6593592131071598  0.21502832643125366  0.5445799026310523  1.0000
  H   H5        1.0  0.23183199524330111  0.9070191964726395  0.5665436050397485  1.0000
  H   H6        1.0  0.7681680042232447  0.09298080374045686  0.4334563944816615  1.0000
  H   H7        1.0  0.2520843033082677  0.011256912024498397  0.7341907967333834  1.0000
  H   H8        1.0  0.7479156977549761  0.9887430884143413  0.2658092035044372  1.0000
  H   H9        1.0  0.4868773479194618  0.9938079345100461  0.871238694057591  1.0000
  H   H10       1.0  0.5131226517280687  0.006192065015038285  0.1287613061826529  1.0000
  H   H11       1.0  0.6901980108465463  0.8744271244672988  0.8475684908379789  1.0000
  H   H12       1.0  0.3098019886199995  0.1255728757457976  0.15243150868343108  1.0000
  H   H13       1.0  0.028859341336509952  0.6120090538790726  0.7224421008262898  1.0000
  H   H14       1.0  0.9711406583110207  0.38799094564601183  0.2775578994139542  1.0000
  H   H15       1.0  0.7557830231020237  0.7310965784656491  0.8686069436006575  1.0000
  H   H16       1.0  0.24421697614547289  0.26890342083313257  0.13139305592080122  1.0000
  H   H17       1.0  0.9645704426460628  0.9025964754308305  0.9636476214621779  1.0000
  H   H18       1.0  0.03542955700146778  0.09740352409425365  0.03635237877806606  1.0000
  H   H19       1.0  0.9865338821293945  0.9374899065968025  0.8531062073556799  1.0000
  H   H20       1.0  0.013466117737185096  0.06251009384259625  0.14689379288451523  1.0000
  H   H21       1.0  0.3752658349467245  0.6392458416447123  0.9625508511626591  1.0000
  H   H22       1.0  0.6247341649198552  0.36075415879468664  0.0374491490775361  1.0000
  H   H23       1.0  0.23651251720342148  0.407284760163424  0.9299668770090387  1.0000
  H   H24       1.0  0.7634874820440752  0.5927152391353577  0.07003312251242012  1.0000
  H   H25       1.0  0.9748862009308316  0.23639073339011152  0.8761424009153989  1.0000
  H   H26       1.0  0.025113798716699012  0.7636092661349728  0.1238575993248451  1.0000
  H   H27       1.0  0.6549253572258564  0.16528736892622467  0.8150431804296011  1.0000
  H   H28       1.0  0.34507464383738734  0.8347126315126151  0.1849568198082195  1.0000
  H   H29       1.0  0.48011251074391614  0.3222468615549982  0.7880641665958966  1.0000
  H   H30       1.0  0.5198874891226635  0.6777531388844006  0.21193583364429855  1.0000
  H   H31       1.0  0.61691256457302  0.5457592681798061  0.8163695207583849  1.0000
  H   H32       1.0  0.38308743529355976  0.4542407322595927  0.18363047948181044  1.0000
  C   C1        1.0  0.6867509410178031  0.6952865262188562  0.5766552574685178  1.0000
  C   C2        1.0  0.3132490584487426  0.30471347399424004  0.42334474205289224  1.0000
  C   C3        1.0  0.5602368897446733  0.7090892924857755  0.49788911287043397  1.0000
  C   C4        1.0  0.4397631101219063  0.2909107079536234  0.5021108873697612  1.0000
  C   C5        1.0  0.44140523467975085  0.7730601591103066  0.5148347293296307  1.0000
  C   C6        1.0  0.5585947645677459  0.22693984018847524  0.4851652701918282  1.0000
  C   C7        1.0  0.4500403004573983  0.8282179024314074  0.6104998135629923  1.0000
  C   C8        1.0  0.5499597002058116  0.1717820977811298  0.389500185956043  1.0000
  C   C9        1.0  0.33146051603966403  0.898658225269776  0.6281536889908669  1.0000
  C   C10       1.0  0.6685394850235796  0.1013417751690636  0.37184631124695366  1.0000
  C   C11       1.0  0.34326230255190404  0.9567753897421506  0.7206776621932756  1.0000
  C   C12       1.0  0.6567376985113397  0.043224610696689154  0.2793223380445449  1.0000
  C   C13       1.0  0.4754862774355323  0.946446841509353  0.7980988396681192  1.0000
  C   C14       1.0  0.5245137222119982  0.053553158015731454  0.20190116057212482  1.0000
  C   C15       1.0  0.593047915307634  0.8776685055539456  0.7837861603530897  1.0000
  C   C16       1.0  0.4069520843398965  0.12233149397113868  0.21621383988715426  1.0000
  C   C17       1.0  0.5812465268185626  0.8158354102071563  0.6904620375170055  1.0000
  C   C18       1.0  0.4187534742446814  0.18416459023168347  0.3095379627208152  1.0000
  C   C19       1.0  0.8282846052425968  0.7107675991891084  0.7364638299975559  1.0000
  C   C20       1.0  0.17171539462398278  0.28923240125029037  0.2635361702426393  1.0000
  C   C21       1.0  0.918840536358854  0.6466409063744057  0.6902897768827865  1.0000
  C   C22       1.0  0.08115946310769179  0.35335909383869046  0.3097102226386236  1.0000
  C   C23       1.0  0.8702196926545448  0.7389971044242836  0.8444567886886497  1.0000
  C   C24       1.0  0.129780306812001  0.2610028957888127  0.1555432108327604  1.0000
  C   C25       1.0  0.99312072922005  0.8680093844893062  0.8969627476476749  1.0000
  C   C26       1.0  0.006879270427480522  0.13199061503577816  0.10303725259256907  1.0000
  C   C27       1.0  0.1332365592832335  0.6866199807473049  0.9144780419275739  1.0000
  C   C28       1.0  0.8667634403642971  0.3133800187777794  0.08552195831267013  1.0000
  C   C29       1.0  0.2366485566907174  0.6016027784825545  0.9345334418908953  1.0000
  C   C30       1.0  0.7633514431758622  0.39839722195684446  0.06546655834929989  1.0000
  C   C31       1.0  0.159665396485253  0.47609602603405665  0.916939729666759  1.0000
  C   C32       1.0  0.8403346029812928  0.5239039741790397  0.08306026985465106  1.0000
  C   C33       1.0  0.9781843485872258  0.4319078360749106  0.8823845923141382  1.0000
  C   C34       1.0  0.021815651279353792  0.5680921643644883  0.11761540792605697  1.0000
  C   C35       1.0  0.8950996137344677  0.3032781146973683  0.8638427017064488  1.0000
  C   C36       1.0  0.10490038710972706  0.6967218848271569  0.1361572985314204  1.0000
  C   C37       1.0  0.7183874703576049  0.2643572132519109  0.8296228729512817  1.0000
  C   C38       1.0  0.2816125295089748  0.735642787187488  0.17037712728891355  1.0000
  C   C39       1.0  0.6195747160980241  0.35294652264389614  0.8136023811920805  1.0000
  C   C40       1.0  0.38042528314947255  0.6470534766548856  0.18639761832937823  1.0000
  C   C41       1.0  0.6967684017330508  0.47968681243971234  0.8302101880900261  1.0000
  C   C42       1.0  0.30323159791447984  0.520313187085372  0.16978981215021785  1.0000
  C   C43       1.0  0.8760239178522532  0.5198589314055783  0.8641292071371447  1.0000
  C   C44       1.0  0.1239760817952774  0.480141068119506  0.13587079310309932  1.0000
  N   N1        1.0  0.6955816674033056  0.7427659751474396  0.6709256521359369  1.0000
  N   N2        1.0  0.3044183324632741  0.2572340252919592  0.3290743481042584  1.0000
  N   N3        1.0  0.9603647988291774  0.6449834670735481  0.8789790034036989  1.0000
  N   N4        1.0  0.039635201037402236  0.35501653336585065  0.12102099683649624  1.0000
  S   S1        1.0  0.8452253011128871  0.6194538402037442  0.5684696759173572  1.0000
  S   S2        1.0  0.15477469973130756  0.38054615932078095  0.4315303243205121  1.0000
  S   S3        1.0  0.21024296936231543  0.8451068772984047  0.9272973384042408  1.0000
  S   S4        1.0  0.7897570298851813  0.15489312200037705  0.07270266111721804  1.0000
  I   I1        1.0  0.3173703539933032  0.17702939511424365  0.9607008400849515  1.0000
  I   I2        1.0  0.6826296458732765  0.8229706053251552  0.039299160155243686  1.0000
  I   I3        1.0  0.9057275117412151  0.7180835704522481  0.34395009606626664  1.0000
  I   I4        1.0  0.09427248772533074  0.28191642976084813  0.6560499034551434  1.0000
  I   I5        1.0  0.6992563129980282  0.46169589982488607  0.323305901794336  1.0000
  I   I6        1.0  0.30074368806521545  0.5383041006139535  0.6766940984434844  1.0000
  I   I7        1.0  0.10964903273185828  0.9656845449413158  0.36408696904654836  1.0000
  I   I8        1.0  0.8903509681123364  0.034315454583209046  0.6359130311913209  1.0000
