data_image0
_chemical_formula_structural       C14O2S4Cl4
_chemical_formula_sum              "C14 O2 S4 Cl4"
_cell_length_a       7.423571909603286
_cell_length_b       8.431368118646873
_cell_length_c       7.267796345656765
_cell_angle_alpha    105.88928694014432
_cell_angle_beta     91.01971424756013
_cell_angle_gamma    98.19180332213624

_space_group_name_H-M_alt    "P 1"
_space_group_IT_number       1

loop_
  _space_group_symop_operation_xyz
  'x, y, z'

loop_
  _atom_site_type_symbol
  _atom_site_label
  _atom_site_symmetry_multiplicity
  _atom_site_fract_x
  _atom_site_fract_y
  _atom_site_fract_z
  _atom_site_occupancy
  C   C1        1.0  0.42916177322992977  0.4383747674677252  0.46117069657538856  1.0000
  C   C2        1.0  0.5708382273769058  0.5616252322604395  0.5388293030977725  1.0000
  C   C3        1.0  0.11816252555958386  0.2759270610928489  0.3241133163635616  1.0000
  C   C4        1.0  0.881837473696356  0.7240729386092504  0.6758866833122411  1.0000
  C   C5        1.0  0.22205894618254737  0.15906874493225498  0.34017814981798006  1.0000
  C   C6        1.0  0.7779410530733925  0.8409312547698442  0.6598218498578228  1.0000
  C   C7        1.0  0.03288426203359081  0.10455646682084872  0.27228473547300047  1.0000
  C   C8        1.0  0.967115737222349  0.8954435328812506  0.7277152642028022  1.0000
  C   C9        1.0  0.3720741229799696  0.6067327274065385  0.9649105407400402  1.0000
  C   C10       1.0  0.6279258777075967  0.3932672726473723  0.035089460366008005  1.0000
  C   C11       1.0  0.32230049998977234  0.42197856020657715  0.9147081836227591  1.0000
  C   C12       1.0  0.6776995006170631  0.5780214395215876  0.08529181605040204  1.0000
  C   C13       1.0  0.5567338499596102  0.6781250933704437  0.05790513863702548  1.0000
  C   C14       1.0  0.44326615072795617  0.321874906683467  0.9420948624690227  1.0000
  O   O1        1.0  0.267125730918051  0.6958220320650732  0.9275085582629  1.0000
  O   O2        1.0  0.732874269854187  0.30417796886744547  0.07249144143737415  1.0000
  S   S1        1.0  0.21083978098032988  0.4784710147388841  0.39135478747089264  1.0000
  S   S2        1.0  0.7891602185217432  0.5215289864933154  0.6086452136649102  1.0000
  S   S3        1.0  0.44029827729172133  0.22018082285394808  0.42305431505215046  1.0000
  S   S4        1.0  0.559701723395845  0.7798191771999626  0.5769456860538977  1.0000
  Cl  Cl1       1.0  0.10676751468175744  0.3415332195235615  0.8219503154193022  1.0000
  Cl  Cl2       1.0  0.8932324845741824  0.6584667801785377  0.17804968425650053  1.0000
  Cl  Cl3       1.0  0.6129101190069243  0.8885121595799172  0.11688053950673367  1.0000
  Cl  Cl4       1.0  0.3870898802490156  0.11148784012218206  0.8831194601690691  1.0000
