data_image0
_chemical_formula_structural       H26C28N2O8F2S4I2
_chemical_formula_sum              "H26 C28 N2 O8 F2 S4 I2"
_cell_length_a       6.921497546512342
_cell_length_b       8.001057414718591
_cell_length_c       14.959654169743573
_cell_angle_alpha    99.62239594815827
_cell_angle_beta     90.9325221314619
_cell_angle_gamma    94.65859522679273

_space_group_name_H-M_alt    "P 1"
_space_group_IT_number       1

loop_
  _space_group_symop_operation_xyz
  'x, y, z'

loop_
  _atom_site_type_symbol
  _atom_site_label
  _atom_site_symmetry_multiplicity
  _atom_site_fract_x
  _atom_site_fract_y
  _atom_site_fract_z
  _atom_site_occupancy
  H   H1        1.0  0.19889420401874955  0.6957348335626682  0.6061945833123192  1.0000
  H   H2        1.0  0.8011057953040208  0.30426516567815876  0.3938054169460625  1.0000
  H   H3        1.0  0.2469948353818941  0.6891469051209858  0.44207972545178564  1.0000
  H   H4        1.0  0.7530051655033957  0.310853095374929  0.5579202748096013  1.0000
  H   H5        1.0  0.2968697948044898  0.4187814787022418  0.34062342275607493  1.0000
  H   H6        1.0  0.7031302059631991  0.5812185205394104  0.6593765775044096  1.0000
  H   H7        1.0  0.3074366202321795  0.1476353029335959  0.40437417532684605  1.0000
  H   H8        1.0  0.6925633806531102  0.8523646975623189  0.5956258249345409  1.0000
  H   H9        1.0  0.7917042613918517  0.32450571259253136  0.10280857301268484  1.0000
  H   H10       1.0  0.20829573800910084  0.6754942876891389  0.8971914265682867  1.0000
  H   H11       1.0  0.6800127767576796  0.20836422034239854  0.8135162199510021  1.0000
  H   H12       1.0  0.31998722412761016  0.7916357801535162  0.18648378031038493  1.0000
  H   H13       1.0  0.7287482280057916  0.8199455950421829  0.9782737734111618  1.0000
  H   H14       1.0  0.2712517728794981  0.1800544054537318  0.021726226850225162  1.0000
  H   H15       1.0  0.7699502533194689  0.5567856920200829  0.019394323802722498  1.0000
  H   H16       1.0  0.23004974596388283  0.4432143070073248  0.9806056757773465  1.0000
  H   H17       1.0  0.8582395440353212  0.5128751102219414  0.9070544944303885  1.0000
  H   H18       1.0  0.14176045681054975  0.4871248900605541  0.09294550515268565  1.0000
  H   H19       1.0  0.6063209855417648  0.5092036745293164  0.9230793694873942  1.0000
  H   H20       1.0  0.3936790138591877  0.4907963257523538  0.07692063009357716  1.0000
  H   H21       1.0  0.6458982926326844  0.9166952012522127  0.7411816978213032  1.0000
  H   H22       1.0  0.3541017068076868  0.08330479924287662  0.2588183024379811  1.0000
  H   H23       1.0  0.7951458986327488  0.7844555967212304  0.7920496772905877  1.0000
  H   H24       1.0  0.2048541006900215  0.21554440251959633  0.207950322967794  1.0000
  H   H25       1.0  0.5421791486479604  0.7714513487471355  0.8087503932789879  1.0000
  H   H26       1.0  0.4578208522373294  0.22854865174877917  0.1912496069823991  1.0000
  C   C1        1.0  0.14100268005807745  0.17984639730845878  0.6955170617570654  1.0000
  C   C2        1.0  0.8589973208272123  0.8201536031874559  0.3044829385043216  1.0000
  C   C3        1.0  0.26488024967686014  0.274446625556518  0.5403510433517102  1.0000
  C   C4        1.0  0.735119751169011  0.7255533747259775  0.4596489562313639  1.0000
  C   C5        1.0  0.23397897817238825  0.4268886032447999  0.5973179558051503  1.0000
  C   C6        1.0  0.7660210212679831  0.5731113972502895  0.40268204445413397  1.0000
  C   C7        1.0  0.22598812005417465  0.5771767327964477  0.5627400173675989  1.0000
  C   C8        1.0  0.7740118792291769  0.42282326623095995  0.43725998221247  1.0000
  C   C9        1.0  0.2512897184454551  0.5721080487219753  0.46985694996226185  1.0000
  C   C10       1.0  0.7487102808773153  0.42789195051885165  0.53014305029612  1.0000
  C   C11       1.0  0.280013416379005  0.41933542996215034  0.412917547150381  1.0000
  C   C12       1.0  0.7199865830613662  0.5806645705329391  0.5870824531089032  1.0000
  C   C13       1.0  0.28596466940562953  0.2680442952509196  0.44753661470397166  1.0000
  C   C14       1.0  0.7140353299953229  0.7319557050307506  0.5524633848769998  1.0000
  C   C15       1.0  0.7647948313299648  0.23524730981473807  0.03935037104716679  1.0000
  C   C16       1.0  0.23520516811040637  0.7647526906803513  0.9606496292121174  1.0000
  C   C17       1.0  0.7362832555844963  0.2923279967216834  0.9571421485946451  1.0000
  C   C18       1.0  0.2637167452613749  0.707672003560812  0.042857850988428974  1.0000
  C   C19       1.0  0.702958698892087  0.16871544741905004  0.8790423248171781  1.0000
  C   C20       1.0  0.2970413005482843  0.8312845530760393  0.12095767544210607  1.0000
  C   C21       1.0  0.7001669109349551  0.9956664550050748  0.8838254636174637  1.0000
  C   C22       1.0  0.29983308838781514  0.004333544235751963  0.11617453664091806  1.0000
  C   C23       1.0  0.7301241094669534  0.9527165402817842  0.9694311883054821  1.0000
  C   C24       1.0  0.26987588981639826  0.0472834587456234  0.030568811274586882  1.0000
  C   C25       1.0  0.743234699762284  0.47844020642876156  0.9521198571793796  1.0000
  C   C26       1.0  0.2567652995604863  0.5215597928120653  0.04788014307900218  1.0000
  C   C27       1.0  0.6688783217778989  0.8598348529803228  0.8017723760236276  1.0000
  C   C28       1.0  0.3311216775054528  0.14016514604708485  0.19822762355644136  1.0000
  N   N1        1.0  0.7611266512576927  0.06910575164353193  0.04463223315581907  1.0000
  N   N2        1.0  0.23887334814325986  0.9308942486381383  0.9553677664251524  1.0000
  O   O1        1.0  0.48066252801767895  0.09283909729260507  0.6266612788002872  1.0000
  O   O2        1.0  0.5193374728676109  0.9071609032033096  0.3733387214610998  1.0000
  O   O3        1.0  0.17690267905795928  0.9463842712926678  0.5470583170642729  1.0000
  O   O4        1.0  0.8230973216703109  0.05361572773556506  0.4529416825178986  1.0000
  O   O5        1.0  0.39365496143622764  0.44811616793358716  0.7613898232643336  1.0000
  O   O6        1.0  0.6063450379647249  0.551883832348083  0.23861017631663783  1.0000
  O   O7        1.0  0.04344388022356226  0.5002890077620407  0.7500147193361416  1.0000
  O   O8        1.0  0.9565561206617275  0.499710992733874  0.2499852809252454  1.0000
  F   F1        1.0  0.9467744991895125  0.15555058746159192  0.6678477509102206  1.0000
  F   F2        1.0  0.05322550169577714  0.8444494130343226  0.3321522493511663  1.0000
  S   S1        1.0  0.2815748108565914  0.09773224625502523  0.5964155972227776  1.0000
  S   S2        1.0  0.7184251900286983  0.9022677542408895  0.4035844030386094  1.0000
  S   S3        1.0  0.20707727681249322  0.4120648199726617  0.7137206959626022  1.0000
  S   S4        1.0  0.792922722627878  0.5879351805224277  0.28627930429668214  1.0000
  I   I1        1.0  0.1960309099606809  0.05891300925231094  0.8127913303470047  1.0000
  I   I2        1.0  0.803969090924609  0.9410869912436037  0.18720866991438237  1.0000
