data_image0
_chemical_formula_structural       H76C80N4O16F4S8I4
_chemical_formula_sum              "H76 C80 N4 O16 F4 S8 I4"
_cell_length_a       8.051318576609276
_cell_length_b       24.0346581516525
_cell_length_c       10.99791967463601
_cell_angle_alpha    90.0
_cell_angle_beta     100.08707199362149
_cell_angle_gamma    90.0

_space_group_name_H-M_alt    "P 1"
_space_group_IT_number       1

loop_
  _space_group_symop_operation_xyz
  'x, y, z'

loop_
  _atom_site_type_symbol
  _atom_site_label
  _atom_site_symmetry_multiplicity
  _atom_site_fract_x
  _atom_site_fract_y
  _atom_site_fract_z
  _atom_site_occupancy
  H   H1        1.0  0.12677886348933937  0.9922430720472019  0.37264158867138913  1.0000
  H   H2        1.0  0.8732211369232296  0.4922430718735463  0.6273584118373463  1.0000
  H   H3        1.0  0.3415111061400841  0.006121921479872745  0.23395753579616713  1.0000
  H   H4        1.0  0.6584888942724847  0.5061219216535282  0.7660424647125682  1.0000
  H   H5        1.0  0.6416759414828265  0.9856543230414618  0.31183397321670026  1.0000
  H   H6        1.0  0.3583240589297423  0.48565432286780646  0.6881660272920351  1.0000
  H   H7        1.0  0.7359264111884279  0.9524651545096368  0.5266787641223286  1.0000
  H   H8        1.0  0.2640735890104851  0.4524651543359813  0.47332123546288446  1.0000
  H   H9        1.0  0.5255978730625341  0.9387992143524051  0.6646293747530426  1.0000
  H   H10       1.0  0.4744021271363789  0.43879921417874973  0.33537062483217056  1.0000
  H   H11       1.0  0.24722237855861778  0.7867729376754151  0.8546232753633255  1.0000
  H   H12       1.0  0.7527776206106428  0.28677293791782543  0.14537672513998873  1.0000
  H   H13       1.0  0.40044995243452536  0.7924773658031176  0.06946401505767508  1.0000
  H   H14       1.0  0.5995500479780435  0.2924773660455279  0.9305359854510602  1.0000
  H   H15       1.0  0.3367743355919145  0.8690240085051485  0.20889914134506785  1.0000
  H   H16       1.0  0.6632256648206543  0.36902400874755886  0.7911008591636676  1.0000
  H   H17       1.0  0.12544240020528544  0.9413213779553783  0.12842538695795438  1.0000
  H   H18       1.0  0.8745575987503192  0.4413213781977887  0.8715746126218374  1.0000
  H   H19       1.0  0.9746231289949446  0.9365446930000275  0.9103235337797337  1.0000
  H   H20       1.0  0.025376871203968223  0.436544692826372  0.08967646580547918  1.0000
  H   H21       1.0  0.2947315131605975  0.5409598026301058  0.09514071712689207  1.0000
  H   H22       1.0  0.7052684860086632  0.040959802456450325  0.9048592833764221  1.0000
  H   H23       1.0  0.08007010836204509  0.5282006117955602  0.2341921417497082  1.0000
  H   H24       1.0  0.9199298918368679  0.02820061162190478  0.765807857835505  1.0000
  H   H25       1.0  0.7797881414167567  0.5481801657783982  0.15463456737776332  1.0000
  H   H26       1.0  0.22021185878215635  0.04818016560474284  0.8453654322074498  1.0000
  H   H27       1.0  0.6874604126765876  0.5807997518383771  0.9390733291510609  1.0000
  H   H28       1.0  0.31253958752232525  0.08079975208078748  0.060926670434152286  1.0000
  H   H29       1.0  0.8972862488461266  0.5918510086660819  0.8000263966934761  1.0000
  H   H30       1.0  0.10271375135278647  0.09185100849242642  0.19997360289173702  1.0000
  H   H31       1.0  0.19051967172377213  0.742977290849141  0.605076285744133  1.0000
  H   H32       1.0  0.8094803274454885  0.2429772906754856  0.39492371475918114  1.0000
  H   H33       1.0  0.04269906537240156  0.7376017590157035  0.3886059694786478  1.0000
  H   H34       1.0  0.9573009348265112  0.23760175884204796  0.6113940301065652  1.0000
  H   H35       1.0  0.10137503678389172  0.6587775553159415  0.253074312206973  1.0000
  H   H36       1.0  0.8986249634150213  0.15877755555835188  0.7469256873782402  1.0000
  H   H37       1.0  0.3014071484054645  0.584083414518413  0.33917370160256843  1.0000
  H   H38       1.0  0.6985928520071043  0.08408341476082329  0.660826298906167  1.0000
  H   H39       1.0  0.44716865020822366  0.5887924866960098  0.5584783348888487  1.0000
  H   H40       1.0  0.5528313499906894  0.0887924865223544  0.44152166469636434  1.0000
  H   H41       1.0  0.7239985202814289  0.9167042385616433  0.17829649384701743  1.0000
  H   H42       1.0  0.27600148013114  0.4167042388040537  0.821703506661718  1.0000
  H   H43       1.0  0.6697969261230463  0.811408998494915  0.8565329421702992  1.0000
  H   H44       1.0  0.3302030728325585  0.3114089987373253  0.14346705740949248  1.0000
  H   H45       1.0  0.9649477107836874  0.7637938669303614  0.20555842521111609  1.0000
  H   H46       1.0  0.03505228838557331  0.2637938671727719  0.794441575292198  1.0000
  H   H47       1.0  0.5304678965362633  0.8992430141351521  0.8385083936584994  1.0000
  H   H48       1.0  0.46953210241934146  0.3992430143775625  0.1614916059212924  1.0000
  H   H49       1.0  0.47176795556908624  0.9272814549462466  0.9739251687471743  1.0000
  H   H50       1.0  0.5282320446298266  0.42728145518865707  0.02607483083803872  1.0000
  H   H51       1.0  0.6556471650975038  0.9514546163173833  0.92461672073103  1.0000
  H   H52       1.0  0.3443528353150651  0.4514546165597937  0.07538327977770552  1.0000
  H   H53       1.0  0.8136992473117433  0.7229582255907937  0.8708595527024563  1.0000
  H   H54       1.0  0.1863007528871697  0.22295822583320418  0.12914044688275675  1.0000
  H   H55       1.0  0.008653979515357424  0.7236904972914748  0.9752825083162848  1.0000
  H   H56       1.0  0.9913460206835555  0.22369049753388529  0.024717491268928183  1.0000
  H   H57       1.0  0.8305413169856288  0.6904539563363427  0.017192884535420807  1.0000
  H   H58       1.0  0.1694586832132842  0.19045395616268726  0.9828071150497923  1.0000
  H   H59       1.0  0.7073956357698078  0.6161445545245593  0.28772572930513113  1.0000
  H   H60       1.0  0.2926043631857969  0.11614455476696975  0.7122742702746607  1.0000
  H   H61       1.0  0.7554167047224084  0.7241449277198623  0.604765974386463  1.0000
  H   H62       1.0  0.2445832954765046  0.2241449279622727  0.39523402519875017  1.0000
  H   H63       1.0  0.4532675616816408  0.7666584248352664  0.2548531655831957  1.0000
  H   H64       1.0  0.5467324372739639  0.2666584246616109  0.745146833996596  1.0000
  H   H65       1.0  0.9027036650904008  0.637789282596726  0.6261260517548897  1.0000
  H   H66       1.0  0.09729633532216812  0.13778928242307048  0.37387394875384583  1.0000
  H   H67       1.0  0.7739478190753243  0.5847054370953794  0.5471794148510097  1.0000
  H   H68       1.0  0.22605218009393638  0.0847054373377898  0.4528205856523043  1.0000
  H   H69       1.0  0.9561066751324355  0.6065628684216444  0.4918376351837054  1.0000
  H   H70       1.0  0.04389332403682516  0.10656286824798898  0.5081623653196089  1.0000
  H   H71       1.0  0.6063009513640593  0.8115702360700678  0.5868544523423384  1.0000
  H   H72       1.0  0.3936990490485095  0.31157023589641236  0.41314554816639704  1.0000
  H   H73       1.0  0.5872692221132059  0.8427447352151068  0.43909272105422525  1.0000
  H   H74       1.0  0.4127307780857071  0.3427447354575173  0.5609072785309879  1.0000
  H   H75       1.0  0.41111641731152326  0.809105504113981  0.48284113511873  1.0000
  H   H76       1.0  0.5888835828873897  0.30910550394032554  0.5171588644664831  1.0000
  C   C1        1.0  0.11524669288024314  0.8808092990723257  0.6107852503456037  1.0000
  C   C2        1.0  0.8847533073186699  0.38080929889867027  0.3892147492396094  1.0000
  C   C3        1.0  0.3155849020108386  0.9640518115048332  0.5248814779193242  1.0000
  C   C4        1.0  0.6844150984017302  0.4640518117472435  0.47511852258941123  1.0000
  C   C5        1.0  0.25985767758868694  0.9827329700703911  0.40389181675197955  1.0000
  C   C6        1.0  0.7401423213669179  0.4827329703128015  0.5961081828278122  1.0000
  C   C7        1.0  0.3792039493005749  0.99026893620967  0.3274031176792327  1.0000
  C   C8        1.0  0.620796050898338  0.4902689360360147  0.6725968819059803  1.0000
  C   C9        1.0  0.5492421843473423  0.9787463945428581  0.3714158551755144  1.0000
  C   C10       1.0  0.45075781482191835  0.4787463947852685  0.6285841453277997  1.0000
  C   C11       1.0  0.6029251435919674  0.960448988054896  0.4923382155350984  1.0000
  C   C12       1.0  0.3970748568206015  0.46044898829730624  0.507661784973637  1.0000
  C   C13       1.0  0.4856837681286808  0.952874360246533  0.5701448660781037  1.0000
  C   C14       1.0  0.5143162320702321  0.45287436048894353  0.4298551335071094  1.0000
  C   C15       1.0  0.10221315289046816  0.8615160614870798  0.8717652856644561  1.0000
  C   C16       1.0  0.8977868462787925  0.3615160613134243  0.12823471483885815  1.0000
  C   C17       1.0  0.22144341923641978  0.820552310149834  0.9145378884805816  1.0000
  C   C18       1.0  0.7785565799328409  0.32055230997617856  0.08546211202273264  1.0000
  C   C19       1.0  0.30596237466949955  0.8238747081426055  0.03624690046323445  1.0000
  C   C20       1.0  0.6940376257430693  0.32387470796895007  0.963753100045501  1.0000
  C   C21       1.0  0.2710403506716299  0.8668763045655169  0.11341464559548216  1.0000
  C   C22       1.0  0.728959649740939  0.36687630480792743  0.8865853549132532  1.0000
  C   C23       1.0  0.15250914690362974  0.9076833031011948  0.06854600237372817  1.0000
  C   C24       1.0  0.847490853508939  0.4076833033436052  0.9314539981350072  1.0000
  C   C25       1.0  0.06778921501143917  0.9053611951832105  0.9468794638319405  1.0000
  C   C26       1.0  0.9322107851874737  0.405361195009555  0.053120535753272455  1.0000
  C   C27       1.0  0.31054388043872605  0.6482235712151707  0.85298577540201  1.0000
  C   C28       1.0  0.6894561197601868  0.14822357145758114  0.14701422418320306  1.0000
  C   C29       1.0  0.10679754790293358  0.5669495070002947  0.9408869987163075  1.0000
  C   C30       1.0  0.8932024525096353  0.06694950682663925  0.05911300179242794  1.0000
  C   C31       1.0  0.16155131752920157  0.5496994093544709  0.06302347873642601  1.0000
  C   C32       1.0  0.8384486814264033  0.04969940918081548  0.9369765208433658  1.0000
  C   C33       1.0  0.04244372587380334  0.5432233571877253  0.13988624319038812  1.0000
  C   C34       1.0  0.9575562745387656  0.043223357430135674  0.8601137573183474  1.0000
  C   C35       1.0  0.8725666460910979  0.5547702274718328  0.09507475872498762  1.0000
  C   C36       1.0  0.12743335432147074  0.05477022771424324  0.9049252417837477  1.0000
  C   C37       1.0  0.8199581320329294  0.5722989943609527  0.9735869567957904  1.0000
  C   C38       1.0  0.18004186692267532  0.07229899460336305  0.02641304278400129  1.0000
  C   C39       1.0  0.9371742897020428  0.5785048022014001  0.895145659611937  1.0000
  C   C40       1.0  0.0628257104968702  0.07850480244381053  0.10485433997327606  1.0000
  C   C41       1.0  0.32720233681359023  0.6661447476796832  0.5922012021138594  1.0000
  C   C42       1.0  0.6727976633853227  0.16614474792209372  0.40779879747135356  1.0000
  C   C43       1.0  0.21357546963594662  0.7082836374283759  0.5465590329344074  1.0000
  C   C44       1.0  0.7864245307766222  0.20828363725472046  0.45344096757432806  1.0000
  C   C45       1.0  0.13203021176094246  0.7050562726158388  0.42411564325019624  1.0000
  C   C46       1.0  0.8679697886516264  0.20505627285824923  0.5758843572585391  1.0000
  C   C47       1.0  0.164271821949545  0.6608370229267424  0.34925582413617307  1.0000
  C   C48       1.0  0.8357281784630238  0.16083702316915277  0.6507441763725623  1.0000
  C   C49       1.0  0.27662759998735426  0.6187447100834893  0.3972342214349151  1.0000
  C   C50       1.0  0.7233724002115586  0.11874470990983386  0.602765778150298  1.0000
  C   C51       1.0  0.3585982093601386  0.6209572379116142  0.5195893120839329  1.0000
  C   C52       1.0  0.6414017908387744  0.12095723773795876  0.48041068750128013  1.0000
  C   C53       1.0  0.7484578083520637  0.8783247740325596  0.13117240635703584  1.0000
  C   C54       1.0  0.25154219060354105  0.37832477427497  0.868827593222756  1.0000
  C   C55       1.0  0.682491701730207  0.8701120776524187  0.0061572999798122745  1.0000
  C   C56       1.0  0.31750829846870593  0.3701120778948291  0.9938426996054007  1.0000
  C   C57       1.0  0.7202355734532879  0.8197221776855357  0.9533610722899117  1.0000
  C   C58       1.0  0.2797644267456249  0.3197221775118802  0.04663892729530131  1.0000
  C   C59       1.0  0.8228072551982841  0.7799721286533503  0.02266662747953587  1.0000
  C   C60       1.0  0.17719274521428463  0.2799721284796949  0.9773333730291995  1.0000
  C   C61       1.0  0.8828305430739875  0.792733817547141  0.14658790381283032  1.0000
  C   C62       1.0  0.11716945712492557  0.2927338177895514  0.8534120957723828  1.0000
  C   C63       1.0  0.5792641994789959  0.9141584557336153  0.9318142494585074  1.0000
  C   C64       1.0  0.420735800719917  0.41415845555995984  0.06818575012670573  1.0000
  C   C65       1.0  0.871179187097991  0.7264665738047751  0.9683410658571106  1.0000
  C   C66       1.0  0.1288208118576137  0.22646657363111958  0.031658933722681304  1.0000
  C   C67       1.0  0.6801694055486611  0.6546144168444621  0.3334226915020703  1.0000
  C   C68       1.0  0.3198305946502518  0.15461441667080666  0.6665773080831427  1.0000
  C   C69       1.0  0.7459532085816968  0.6641823985710583  0.4579817662600921  1.0000
  C   C70       1.0  0.25404679037390804  0.1641823988134688  0.5420182333196997  1.0000
  C   C71       1.0  0.7048884036552872  0.7147084190510503  0.5085176752652708  1.0000
  C   C72       1.0  0.29511159675728166  0.21470841887739492  0.49148232524346464  1.0000
  C   C73       1.0  0.5993553602462202  0.7532072449615983  0.43766401241840774  1.0000
  C   C74       1.0  0.40064463995269284  0.2532072447879428  0.5623359871668053  1.0000
  C   C75       1.0  0.5388259667564397  0.7389749534997585  0.3146405156139566  1.0000
  C   C76       1.0  0.46117403365612913  0.2389749533261031  0.6853594848947788  1.0000
  C   C77       1.0  0.8509272279405636  0.6212608099430516  0.5346484711670693  1.0000
  C   C78       1.0  0.14907277122869714  0.12126080976939613  0.46535152933624496  1.0000
  C   C79       1.0  0.5486481362925896  0.8069477846376822  0.4896242556276307  1.0000
  C   C80       1.0  0.4513518639063235  0.3069477848800927  0.5103757439575825  1.0000
  N   N1        1.0  0.8455353163937612  0.8403268947102274  0.19894923129517827  1.0000
  N   N2        1.0  0.15446468380515174  0.34032689453657194  0.8010507682900349  1.0000
  N   N3        1.0  0.5795186829057178  0.6912928128689709  0.2642487608834893  1.0000
  N   N4        1.0  0.42048131729319516  0.19129281311138135  0.7357512387017237  1.0000
  O   O1        1.0  0.018862470142583552  0.9875451487695938  0.5832907215914045  1.0000
  O   O2        1.0  0.9811375300563294  0.48754514859593834  0.4167092779938086  1.0000
  O   O3        1.0  0.26181399853099896  0.963696811240375  0.7517784585988659  1.0000
  O   O4        1.0  0.7381860004246058  0.4636968114827853  0.24822154098092583  1.0000
  O   O5        1.0  0.9590029281031863  0.7969261355474315  0.6940047513421812  1.0000
  O   O6        1.0  0.04099707230938252  0.296926135373776  0.30599524916655424  1.0000
  O   O7        1.0  0.83720890221285  0.8925228707080697  0.7103350976518565  1.0000
  O   O8        1.0  0.16279109819971868  0.39252287053441426  0.2896649028568789  1.0000
  O   O9        1.0  0.4700130706772429  0.7312303906761262  0.7692728269073044  1.0000
  O   O10       1.0  0.5299869297353259  0.2312303909185366  0.23072717360143097  1.0000
  O   O11       1.0  0.5893247535596301  0.6351539287006838  0.7554092214985134  1.0000
  O   O12       1.0  0.4106752468529386  0.1351539285270283  0.244590779010222  1.0000
  O   O13       1.0  0.4046911742231254  0.5415773296157759  0.8891722221830303  1.0000
  O   O14       1.0  0.5953088259757875  0.0415773298581862  0.11082777740218275  1.0000
  O   O15       1.0  0.16664173796982895  0.5630966425486473  0.7151263846969453  1.0000
  O   O16       1.0  0.833358262229084  0.06309664237499182  0.28487361488826773  1.0000
  F   F1        1.0  0.26628361849378623  0.8515445454169199  0.6390214933927869  1.0000
  F   F2        1.0  0.7337163819187826  0.3515445456593304  0.36097850711594853  1.0000
  F   F3        1.0  0.15984729094360461  0.6775664187626618  0.8235883942640568  1.0000
  F   F4        1.0  0.8401527094689643  0.17756641858900626  0.17641160624467866  1.0000
  S   S1        1.0  0.17051875054770949  0.9558367044392715  0.6270304727794757  1.0000
  S   S2        1.0  0.8294812496512035  0.45583670468168186  0.3729695268057375  1.0000
  S   S3        1.0  0.9814248889117916  0.8557664827276041  0.7213680015815935  1.0000
  S   S4        1.0  0.01857511150077729  0.35576648255394866  0.2786319989271418  1.0000
  S   S5        1.0  0.44604823704250685  0.6723763133235534  0.742821948831084  1.0000
  S   S6        1.0  0.5539517633700619  0.17237631356596383  0.2571780516776515  1.0000
  S   S7        1.0  0.25438921281256993  0.5731086526418074  0.8400745122481095  1.0000
  S   S8        1.0  0.745610787599999  0.07310865246815203  0.1599254882606259  1.0000
  I   I1        1.0  0.9842871017901916  0.8619566627193995  0.42020404201982836  1.0000
  I   I2        1.0  0.015712898408721216  0.361956662545744  0.5797959575653846  1.0000
  I   I3        1.0  0.44141983523694484  0.6680563267714309  0.04341187446032688  1.0000
  I   I4        1.0  0.5585801649619682  0.16805632701384132  0.9565881251248861  1.0000
