data_image0
_chemical_formula_structural       H96C80N16O40
_chemical_formula_sum              "H96 C80 N16 O40"
_cell_length_a       6.991663692662281
_cell_length_b       10.218268966125084
_cell_length_c       28.567779797722892
_cell_angle_alpha    90.0
_cell_angle_beta     90.0
_cell_angle_gamma    90.0

_space_group_name_H-M_alt    "P 1"
_space_group_IT_number       1

loop_
  _space_group_symop_operation_xyz
  'x, y, z'

loop_
  _atom_site_type_symbol
  _atom_site_label
  _atom_site_symmetry_multiplicity
  _atom_site_fract_x
  _atom_site_fract_y
  _atom_site_fract_z
  _atom_site_occupancy
  H   H1        1.0  0.706819001489794  0.6086037557453616  0.693786903999443  1.0000
  H   H2        1.0  0.7931809986541744  0.3913962436552135  0.19378690395958853  1.0000
  H   H3        1.0  0.29318099812942655  0.10860375604507409  0.8062130957700756  1.0000
  H   H4        1.0  0.20681900096504638  0.8913962443341403  0.3062130960802659  1.0000
  H   H5        1.0  0.29318099812942655  0.3913962436552135  0.3062130960802659  1.0000
  H   H6        1.0  0.20681900096504638  0.6086037557453616  0.8062130957700756  1.0000
  H   H7        1.0  0.706819001489794  0.8913962443341403  0.19378690395958853  1.0000
  H   H8        1.0  0.7931809986541744  0.10860375604507409  0.693786903999443  1.0000
  H   H9        1.0  0.7321610313397069  0.6210786534430623  0.6082371406890017  1.0000
  H   H10       1.0  0.7678389688042613  0.3789213469361522  0.10823714064914725  1.0000
  H   H11       1.0  0.26783896827951365  0.1210786527641354  0.8917628594305617  1.0000
  H   H12       1.0  0.23216103081495928  0.8789213466364397  0.3917628593907072  1.0000
  H   H13       1.0  0.26783896827951365  0.3789213469361522  0.3917628593907072  1.0000
  H   H14       1.0  0.23216103081495928  0.6210786534430623  0.8917628594305617  1.0000
  H   H15       1.0  0.7321610313397069  0.8789213466364397  0.10823714064914725  1.0000
  H   H16       1.0  0.7678389688042613  0.1210786527641354  0.6082371406890017  1.0000
  H   H17       1.0  0.48598437358564833  0.23452879425513687  0.5970309229756631  1.0000
  H   H18       1.0  0.014015625508824563  0.7654712051454383  0.0970309229358086  1.0000
  H   H19       1.0  0.5140156260335722  0.7345287949340638  0.9029690767938556  1.0000
  H   H20       1.0  0.9859843741103961  0.26547120544515074  0.4029690771040459  1.0000
  H   H21       1.0  0.5140156260335722  0.7654712051454383  0.4029690771040459  1.0000
  H   H22       1.0  0.9859843741103961  0.23452879425513687  0.9029690767938556  1.0000
  H   H23       1.0  0.48598437358564833  0.26547120544515074  0.0970309229358086  1.0000
  H   H24       1.0  0.014015625508824563  0.7345287949340638  0.5970309229756631  1.0000
  H   H25       1.0  0.456380381017009  0.22378436480588607  0.6815751867266919  1.0000
  H   H26       1.0  0.0436196195077387  0.7762156345946891  0.18157518668683753  1.0000
  H   H27       1.0  0.5436196186022116  0.723784365484813  0.8184248133928714  1.0000
  H   H28       1.0  0.9563803815417566  0.27621563489440154  0.3184248133530169  1.0000
  H   H29       1.0  0.5436196186022116  0.7762156345946891  0.3184248133530169  1.0000
  H   H30       1.0  0.9563803815417566  0.22378436480588607  0.8184248133928714  1.0000
  H   H31       1.0  0.456380381017009  0.27621563489440154  0.18157518668683753  1.0000
  H   H32       1.0  0.0436196195077387  0.723784365484813  0.6815751867266919  1.0000
  H   H33       1.0  0.6913970926652662  0.5118970382694435  0.5328434560817128  1.0000
  H   H34       1.0  0.8086029074787022  0.4881029611311316  0.03284345604185832  1.0000
  H   H35       1.0  0.3086029069539545  0.011897038569156007  0.9671565440378506  1.0000
  H   H36       1.0  0.19139709214051845  0.9881029618100585  0.46715654399799617  1.0000
  H   H37       1.0  0.3086029069539545  0.4881029611311316  0.46715654399799617  1.0000
  H   H38       1.0  0.19139709214051845  0.5118970382694435  0.9671565440378506  1.0000
  H   H39       1.0  0.6913970926652662  0.9881029618100585  0.03284345604185832  1.0000
  H   H40       1.0  0.8086029074787022  0.011897038569156007  0.5328434560817128  1.0000
  H   H41       1.0  0.6182732751486195  0.34792609411495895  0.5297130854112161  1.0000
  H   H42       1.0  0.8817267249953489  0.6520739062642555  0.029713085371361615  1.0000
  H   H43       1.0  0.3817267244706011  0.8479260938152464  0.9702869147083473  1.0000
  H   H44       1.0  0.1182732760541466  0.15207390558532868  0.4702869146684928  1.0000
  H   H45       1.0  0.3817267244706011  0.6520739062642555  0.4702869146684928  1.0000
  H   H46       1.0  0.1182732760541466  0.34792609411495895  0.9702869147083473  1.0000
  H   H47       1.0  0.6182732751486195  0.15207390558532868  0.029713085371361615  1.0000
  H   H48       1.0  0.8817267249953489  0.8479260938152464  0.5297130854112161  1.0000
  H   H49       1.0  0.5122910250616098  0.21121653943098803  0.7496821342660694  1.0000
  H   H50       1.0  0.9877089750823586  0.7887834609482265  0.249682134226215  1.0000
  H   H51       1.0  0.48770897455761086  0.7112165391312757  0.7503178655034493  1.0000
  H   H52       1.0  0.012291024536862103  0.2887834602692996  0.25031786581363946  1.0000
  H   H53       1.0  0.48770897455761086  0.7887834609482265  0.25031786581363946  1.0000
  H   H54       1.0  0.012291024536862103  0.21121653943098803  0.7503178655034493  1.0000
  H   H55       1.0  0.5122910250616098  0.2887834602692996  0.249682134226215  1.0000
  H   H56       1.0  0.9877089750823586  0.7112165391312757  0.7496821342660694  1.0000
  H   H57       1.0  0.5321551441189605  0.29365679744265877  0.8034033103905902  1.0000
  H   H58       1.0  0.9678448560250078  0.7063432029365557  0.3034033103507358  1.0000
  H   H59       1.0  0.4678448555002601  0.7936567971429463  0.696596689728973  1.0000
  H   H60       1.0  0.03215514359421283  0.20634320225762884  0.19659668968911864  1.0000
  H   H61       1.0  0.4678448555002601  0.7063432029365557  0.19659668968911864  1.0000
  H   H62       1.0  0.03215514359421283  0.29365679744265877  0.696596689728973  1.0000
  H   H63       1.0  0.5321551441189605  0.20634320225762884  0.3034033103507358  1.0000
  H   H64       1.0  0.9678448560250078  0.7936567971429463  0.8034033103905902  1.0000
  H   H65       1.0  0.7733208214340187  0.004140481146098077  0.440176466251057  1.0000
  H   H66       1.0  0.7266791787099496  0.9958595182544772  0.9401764662909116  1.0000
  H   H67       1.0  0.22667917961547665  0.504140481825025  0.05982353378879743  1.0000
  H   H68       1.0  0.27332082090927107  0.4958595185541895  0.5598235338286519  1.0000
  H   H69       1.0  0.22667917961547665  0.9958595182544772  0.5598235338286519  1.0000
  H   H70       1.0  0.27332082090927107  0.004140481146098077  0.05982353378879743  1.0000
  H   H71       1.0  0.7733208214340187  0.4958595185541895  0.9401764662909116  1.0000
  H   H72       1.0  0.7266791787099496  0.504140481825025  0.440176466251057  1.0000
  H   H73       1.0  0.5265347436352757  0.9798478218954955  0.44493570693978696  1.0000
  H   H74       1.0  0.9734652565086924  0.020152178483719047  0.9449357069796415  1.0000
  H   H75       1.0  0.47346525598394484  0.4798478212165685  0.05506429310006748  1.0000
  H   H76       1.0  0.02653474311052811  0.5201521781840066  0.5550642927898772  1.0000
  H   H77       1.0  0.47346525598394484  0.020152178483719047  0.5550642927898772  1.0000
  H   H78       1.0  0.02653474311052811  0.9798478218954955  0.05506429310006748  1.0000
  H   H79       1.0  0.5265347436352757  0.5201521781840066  0.9449357069796415  1.0000
  H   H80       1.0  0.9734652565086924  0.4798478212165685  0.44493570693978696  1.0000
  H   H81       1.0  0.5617794837761119  0.2663777924640196  0.41004638592648773  1.0000
  H   H82       1.0  0.9382205163678564  0.733622207915195  0.9100463859663421  1.0000
  H   H83       1.0  0.43822051584310884  0.7663777921643072  0.08995361411336678  1.0000
  H   H84       1.0  0.06177948325136411  0.23362220821490728  0.5899536141532212  1.0000
  H   H85       1.0  0.43822051584310884  0.733622207915195  0.5899536141532212  1.0000
  H   H86       1.0  0.06177948325136411  0.2663777924640196  0.08995361411336678  1.0000
  H   H87       1.0  0.5617794837761119  0.23362220821490728  0.9100463859663421  1.0000
  H   H88       1.0  0.9382205163678564  0.7663777921643072  0.41004638592648773  1.0000
  H   H89       1.0  0.627593691985658  0.9922484203158414  0.3171668493021016  1.0000
  H   H90       1.0  0.8724063081583102  0.007751580063373173  0.8171668493419562  1.0000
  H   H91       1.0  0.37240630906383737  0.4922484206155538  0.18283315073775283  1.0000
  H   H92       1.0  0.12759369146091032  0.5077515797636608  0.6828331507776073  1.0000
  H   H93       1.0  0.37240630906383737  0.007751580063373173  0.6828331507776073  1.0000
  H   H94       1.0  0.12759369146091032  0.9922484203158414  0.18283315073775283  1.0000
  H   H95       1.0  0.627593691985658  0.5077515797636608  0.8171668493419562  1.0000
  H   H96       1.0  0.8724063081583102  0.4922484206155538  0.3171668493021016  1.0000
  C   C1        1.0  0.5733671978827024  0.4094353440753603  0.7459916451644837  1.0000
  C   C2        1.0  0.926632802261266  0.5905646563038541  0.24599164547467384  1.0000
  C   C3        1.0  0.426632803166793  0.9094353437756479  0.7540083546050351  1.0000
  C   C4        1.0  0.07336719735795472  0.09056465660356662  0.2540083545651806  1.0000
  C   C5        1.0  0.426632803166793  0.5905646563038541  0.2540083545651806  1.0000
  C   C6        1.0  0.07336719735795472  0.4094353440753603  0.7540083546050351  1.0000
  C   C7        1.0  0.5733671978827024  0.09056465660356662  0.24599164547467384  1.0000
  C   C8        1.0  0.926632802261266  0.9094353437756479  0.7459916451644837  1.0000
  C   C9        1.0  0.5824767521747436  0.41500449675558965  0.6948246437261529  1.0000
  C   C10       1.0  0.9175232479692248  0.5849955036236248  0.19482464368629854  1.0000
  C   C11       1.0  0.41752324887475184  0.9150044964558773  0.8051753560433657  1.0000
  C   C12       1.0  0.08247675164999586  0.08499550294469793  0.3051753563535559  1.0000
  C   C13       1.0  0.41752324887475184  0.5849955036236248  0.3051753563535559  1.0000
  C   C14       1.0  0.08247675164999586  0.41500449675558965  0.8051753560433657  1.0000
  C   C15       1.0  0.5824767521747436  0.08499550294469793  0.19482464368629854  1.0000
  C   C16       1.0  0.9175232479692248  0.9150044964558773  0.6948246437261529  1.0000
  C   C17       1.0  0.6569399848022497  0.5269032189159242  0.6725415757206112  1.0000
  C   C18       1.0  0.8430600153417186  0.4730967804846509  0.1725415756807568  1.0000
  C   C19       1.0  0.34306001481697096  0.026903219215636646  0.8274584240489073  1.0000
  C   C20       1.0  0.156939984277502  0.9730967811635779  0.32745842400905295  1.0000
  C   C21       1.0  0.34306001481697096  0.4730967804846509  0.32745842400905295  1.0000
  C   C22       1.0  0.156939984277502  0.5269032189159242  0.8274584240489073  1.0000
  C   C23       1.0  0.6569399848022497  0.9730967811635779  0.1725415756807568  1.0000
  C   C24       1.0  0.8430600153417186  0.026903219215636646  0.6725415757206112  1.0000
  C   C25       1.0  0.6726198579796531  0.5336418945397772  0.6243989412653559  1.0000
  C   C26       1.0  0.8273801407340405  0.4663581058394374  0.12439894122550153  1.0000
  C   C27       1.0  0.32738014163956763  0.03364189483948958  0.8756010585041627  1.0000
  C   C28       1.0  0.17261985888518008  0.9663581055397249  0.37560105881435296  1.0000
  C   C29       1.0  0.32738014163956763  0.4663581058394374  0.37560105881435296  1.0000
  C   C30       1.0  0.17261985888518008  0.5336418945397772  0.8756010585041627  1.0000
  C   C31       1.0  0.6726198579796531  0.9663581055397249  0.12439894122550153  1.0000
  C   C32       1.0  0.8273801407340405  0.03364189483948958  0.6243989412653559  1.0000
  C   C33       1.0  0.61561628665252  0.42739260773795335  0.5958366569094313  1.0000
  C   C34       1.0  0.8843837134914482  0.5726073926412613  0.0958366568695769  1.0000
  C   C35       1.0  0.38438371296670054  0.9273926074382409  0.9041633428600874  1.0000
  C   C36       1.0  0.11561628755804713  0.07260739196233426  0.4041633431702776  1.0000
  C   C37       1.0  0.38438371296670054  0.5726073926412613  0.4041633431702776  1.0000
  C   C38       1.0  0.11561628755804713  0.42739260773795335  0.9041633428600874  1.0000
  C   C39       1.0  0.61561628665252  0.07260739196233426  0.0958366568695769  1.0000
  C   C40       1.0  0.8843837134914482  0.9273926074382409  0.5958366569094313  1.0000
  C   C41       1.0  0.537331407107408  0.31593105160004475  0.618185703440898  1.0000
  C   C42       1.0  0.9626685930365603  0.6840689478005304  0.1181857034010435  1.0000
  C   C43       1.0  0.46266859251181264  0.8159310522789717  0.8818142966786654  1.0000
  C   C44       1.0  0.03733140801293509  0.18406894810024282  0.38181429663881095  1.0000
  C   C45       1.0  0.46266859251181264  0.6840689478005304  0.38181429663881095  1.0000
  C   C46       1.0  0.03733140801293509  0.31593105160004475  0.8818142966786654  1.0000
  C   C47       1.0  0.537331407107408  0.18406894810024282  0.1181857034010435  1.0000
  C   C48       1.0  0.9626685930365603  0.8159310522789717  0.618185703440898  1.0000
  C   C49       1.0  0.5220104384926818  0.310443752314238  0.666368151630649  1.0000
  C   C50       1.0  0.9779895602210118  0.6895562470863372  0.16636815194083923  1.0000
  C   C51       1.0  0.4779895611265389  0.8104437520145255  0.8336318481388697  1.0000
  C   C52       1.0  0.022010439398208813  0.18955624738604962  0.33363184809901525  1.0000
  C   C53       1.0  0.4779895611265389  0.6895562470863372  0.33363184809901525  1.0000
  C   C54       1.0  0.022010439398208813  0.310443752314238  0.8336318481388697  1.0000
  C   C55       1.0  0.5220104384926818  0.18955624738604962  0.16636815194083923  1.0000
  C   C56       1.0  0.9779895602210118  0.8104437520145255  0.666368151630649  1.0000
  C   C57       1.0  0.6179951167466299  0.16955651155236887  0.4651052540337452  1.0000
  C   C58       1.0  0.8820048819670637  0.8304434878482063  0.9651052540735997  1.0000
  C   C59       1.0  0.3820048828725907  0.6695565122312958  0.03489474600610927  1.0000
  C   C60       1.0  0.11799511765215695  0.33044348814791874  0.5348947460459638  1.0000
  C   C61       1.0  0.3820048828725907  0.8304434878482063  0.5348947460459638  1.0000
  C   C62       1.0  0.11799511765215695  0.16955651155236887  0.03489474600610927  1.0000
  C   C63       1.0  0.6179951167466299  0.33044348814791874  0.9651052540735997  1.0000
  C   C64       1.0  0.8820048819670637  0.6695565122312958  0.4651052540337452  1.0000
  C   C65       1.0  0.6347426871600765  0.05141517822066387  0.4334185641191109  1.0000
  C   C66       1.0  0.8652573129838917  0.9485848221585507  0.9334185641589654  1.0000
  C   C67       1.0  0.36525731245914406  0.5514151779209515  0.06658143592074359  1.0000
  C   C68       1.0  0.13474268663532885  0.4485848224582631  0.5665814359605981  1.0000
  C   C69       1.0  0.36525731245914406  0.9485848221585507  0.5665814359605981  1.0000
  C   C70       1.0  0.13474268663532885  0.05141517822066387  0.06658143592074359  1.0000
  C   C71       1.0  0.6347426871600765  0.4485848224582631  0.9334185641589654  1.0000
  C   C72       1.0  0.8652573129838917  0.5514151779209515  0.4334185641191109  1.0000
  C   C73       1.0  0.6119171942566511  0.07506062157325005  0.38152086536555996  1.0000
  C   C74       1.0  0.8880828058873173  0.924939377827325  0.8815208654054145  1.0000
  C   C75       1.0  0.38808280679284424  0.575060622252177  0.11847913467429448  1.0000
  C   C76       1.0  0.11191719373190344  0.4249393781270376  0.618479134714149  1.0000
  C   C77       1.0  0.38808280679284424  0.924939377827325  0.618479134714149  1.0000
  C   C78       1.0  0.11191719373190344  0.07506062157325005  0.11847913467429448  1.0000
  C   C79       1.0  0.6119171942566511  0.4249393781270376  0.8815208654054145  1.0000
  C   C80       1.0  0.8880828058873173  0.575060622252177  0.38152086536555996  1.0000
  N   N1        1.0  0.6301350856769261  0.4325797534448939  0.548445898874118  1.0000
  N   N2        1.0  0.8698649144670423  0.5674202469343206  0.0484458988342635  1.0000
  N   N3        1.0  0.3698649139422946  0.9325797531451816  0.9515541012454454  1.0000
  N   N4        1.0  0.1301350851521784  0.067420247234033  0.451554101205591  1.0000
  N   N5        1.0  0.3698649139422946  0.5674202469343206  0.451554101205591  1.0000
  N   N6        1.0  0.1301350851521784  0.4325797534448939  0.9515541012454454  1.0000
  N   N7        1.0  0.6301350856769261  0.067420247234033  0.0484458988342635  1.0000
  N   N8        1.0  0.8698649144670423  0.9325797531451816  0.548445898874118  1.0000
  N   N9        1.0  0.5349424549589331  0.29615566002737337  0.7674334073293133  1.0000
  N   N10       1.0  0.9650575437547605  0.7038443403518412  0.26743340728945886  1.0000
  N   N11       1.0  0.4650575446602876  0.796155659727661  0.7325665927902502  1.0000
  N   N12       1.0  0.03494245586446011  0.2038443406515536  0.23256659275039562  1.0000
  N   N13       1.0  0.4650575446602876  0.7038443403518412  0.23256659275039562  1.0000
  N   N14       1.0  0.03494245586446011  0.29615566002737337  0.7325665927902502  1.0000
  N   N15       1.0  0.5349424549589331  0.2038443406515536  0.26743340728945886  1.0000
  N   N16       1.0  0.9650575437547605  0.796155659727661  0.7674334073293133  1.0000
  O   O1        1.0  0.6049525100068773  0.5134725976967176  0.7700857685046133  1.0000
  O   O2        1.0  0.895047490137091  0.4865274026824969  0.2700857688148035  1.0000
  O   O3        1.0  0.3950474896123432  0.013472597996430035  0.7299142312649054  1.0000
  O   O4        1.0  0.1049525094821297  0.9865274023827846  0.22991423122505092  1.0000
  O   O5        1.0  0.3950474896123432  0.4865274026824969  0.22991423122505092  1.0000
  O   O6        1.0  0.1049525094821297  0.5134725976967176  0.7299142312649054  1.0000
  O   O7        1.0  0.6049525100068773  0.9865274023827846  0.2700857688148035  1.0000
  O   O8        1.0  0.895047490137091  0.013472597996430035  0.7700857685046133  1.0000
  O   O9        1.0  0.640921745807497  0.15998685936135967  0.5079159645145606  1.0000
  O   O10       1.0  0.8590782543364714  0.8400131410178547  0.007915964824750767  1.0000
  O   O11       1.0  0.35907825381172365  0.6599868590616472  0.9920840352549581  1.0000
  O   O12       1.0  0.140921746713024  0.34001314033892793  0.4920840352151037  1.0000
  O   O13       1.0  0.35907825381172365  0.8400131410178547  0.4920840352151037  1.0000
  O   O14       1.0  0.140921746713024  0.15998685936135967  0.9920840352549581  1.0000
  O   O15       1.0  0.640921745807497  0.34001314033892793  0.007915964824750767  1.0000
  O   O16       1.0  0.8590782543364714  0.6599868590616472  0.5079159645145606  1.0000
  O   O17       1.0  0.5792784618989301  0.28398875676693336  0.4456284097028339  1.0000
  O   O18       1.0  0.9207215382450382  0.7160112436122812  0.9456284093926437  1.0000
  O   O19       1.0  0.42072153772029053  0.783988756467221  0.05437159033702051  1.0000
  O   O20       1.0  0.07927846137418239  0.21601124391199358  0.554371590376875  1.0000
  O   O21       1.0  0.42072153772029053  0.7160112436122812  0.554371590376875  1.0000
  O   O22       1.0  0.07927846137418239  0.28398875676693336  0.05437159033702051  1.0000
  O   O23       1.0  0.5792784618989301  0.21601124391199358  0.9456284093926437  1.0000
  O   O24       1.0  0.9207215382450382  0.783988756467221  0.4456284097028339  1.0000
  O   O25       1.0  0.5570807652101033  0.18440513811553683  0.3663070176995036  1.0000
  O   O26       1.0  0.942919234933865  0.8155948622636776  0.8663070177393579  1.0000
  O   O27       1.0  0.44291923440911735  0.6844051378158245  0.1336929823403509  1.0000
  O   O28       1.0  0.05708076611563033  0.31559486158475075  0.6336929823802053  1.0000
  O   O29       1.0  0.44291923440911735  0.8155948622636776  0.6336929823802053  1.0000
  O   O30       1.0  0.05708076611563033  0.18440513811553683  0.1336929823403509  1.0000
  O   O31       1.0  0.5570807652101033  0.31559486158475075  0.8663070177393579  1.0000
  O   O32       1.0  0.942919234933865  0.6844051378158245  0.3663070176995036  1.0000
  O   O33       1.0  0.6509722635510417  0.975634034790973  0.3552442983619234  1.0000
  O   O34       1.0  0.8490277365929266  0.024365965588241514  0.855244298401778  1.0000
  O   O35       1.0  0.34902773749845367  0.475634034112046  0.14475570167793103  1.0000
  O   O36       1.0  0.15097226302629402  0.5243659652885291  0.6447557017177855  1.0000
  O   O37       1.0  0.34902773749845367  0.024365965588241514  0.6447557017177855  1.0000
  O   O38       1.0  0.15097226302629402  0.975634034790973  0.14475570167793103  1.0000
  O   O39       1.0  0.6509722635510417  0.5243659652885291  0.855244298401778  1.0000
  O   O40       1.0  0.8490277365929266  0.475634034112046  0.3552442983619234  1.0000
