data_image0
_chemical_formula_structural       H44C40N4O24
_chemical_formula_sum              "H44 C40 N4 O24"
_cell_length_a       5.3075863618329375
_cell_length_b       9.85651776139653
_cell_length_c       19.950051610452086
_cell_angle_alpha    90.0
_cell_angle_beta     98.21205498948206
_cell_angle_gamma    90.0

_space_group_name_H-M_alt    "P 1"
_space_group_IT_number       1

loop_
  _space_group_symop_operation_xyz
  'x, y, z'

loop_
  _atom_site_type_symbol
  _atom_site_label
  _atom_site_symmetry_multiplicity
  _atom_site_fract_x
  _atom_site_fract_y
  _atom_site_fract_z
  _atom_site_occupancy
  H   H1        1.0  0.6247795506822361  0.41503911919298214  0.6782279914637809  1.0000
  H   H2        1.0  0.875220449542671  0.9150391191221391  0.8217720086825133  1.0000
  H   H3        1.0  0.37522044947229116  0.5849608806653319  0.3217720088010025  1.0000
  H   H4        1.0  0.12477955059808869  0.08496088073617489  0.1782279910805083  1.0000
  H   H5        1.0  0.8294959333598476  0.513446097547838  0.7369913951558469  1.0000
  H   H6        1.0  0.6705040668650595  0.013446097618680913  0.7630086049904473  1.0000
  H   H7        1.0  0.1705040667946796  0.4865539023104761  0.2630086051089366  1.0000
  H   H8        1.0  0.3294959332894678  0.9865539022396331  0.23699139527433608  1.0000
  H   H9        1.0  0.9033946095140449  0.7267643110283456  0.735039924644954  1.0000
  H   H10       1.0  0.5966053907108623  0.22676431109918851  0.76496007550134  1.0000
  H   H11       1.0  0.09660539064048239  0.2732356888299685  0.26496007561982937  1.0000
  H   H12       1.0  0.4033946094298975  0.7732356887591255  0.2350399242616814  1.0000
  H   H13       1.0  0.1865490028013598  0.9288879654697422  0.7461779978895877  1.0000
  H   H14       1.0  0.313450997732787  0.4288879655405851  0.753822002004729  1.0000
  H   H15       1.0  0.8134509973394  0.07111203438857193  0.2538220018734338  1.0000
  H   H16       1.0  0.6865490024217402  0.571112034317729  0.24617799826005443  1.0000
  H   H17       1.0  0.6289876891456557  0.9994622977886483  0.6327216100715327  1.0000
  H   H18       1.0  0.8710123110792515  0.49946229785949126  0.8672783900747615  1.0000
  H   H19       1.0  0.3710123110088715  0.0005377020696657359  0.36727839019325065  1.0000
  H   H20       1.0  0.12898768906150834  0.5005377030133799  0.1327216096882601  1.0000
  H   H21       1.0  0.5187101654851861  0.7995166813237143  0.5720826017740842  1.0000
  H   H22       1.0  0.9812898347259535  0.29951668139455734  0.9279173978704481  1.0000
  H   H23       1.0  0.4812898346555736  0.2004833185345997  0.42791739798893735  1.0000
  H   H24       1.0  0.01871016541480625  0.7004833184637568  0.07208260189257341  1.0000
  H   H25       1.0  0.23176689164251912  0.6003444668030102  0.5593489024483003  1.0000
  H   H26       1.0  0.2682331089053952  0.10034446687385322  0.9406510979477782  1.0000
  H   H27       1.0  0.7682331085120082  0.3996555330553038  0.4406510978164831  1.0000
  H   H28       1.0  0.7317668912491321  0.8996555329844609  0.05934890231700513  1.0000
  H   H29       1.0  0.6431406648020237  0.3945370002000602  0.5627728672594836  1.0000
  H   H30       1.0  0.8568593354228835  0.8945370001292172  0.9372271328868106  1.0000
  H   H31       1.0  0.35685933535250364  0.6054629996582538  0.43722713300529986  1.0000
  H   H32       1.0  0.14314066471787626  0.1054629997290968  0.06277286687621089  1.0000
  H   H33       1.0  0.024508350265634506  0.22289836970665752  0.5060592367777377  1.0000
  H   H34       1.0  0.47549165026851237  0.7228983696358146  0.9939407631165789  1.0000
  H   H35       1.0  0.9754916498751252  0.7771016301516566  0.49394076298528383  1.0000
  H   H36       1.0  0.5245083498860149  0.2771016302224995  0.006059237148204439  1.0000
  H   H37       1.0  0.23146985654412464  0.08840211939886403  0.5284461973662322  1.0000
  H   H38       1.0  0.26853014210022463  0.588402119328021  0.9715538029611344  1.0000
  H   H39       1.0  0.7685301436104027  0.9115978804594501  0.47155380289855126  1.0000
  H   H40       1.0  0.7314698561507376  0.41159788053029306  0.028446197234937045  1.0000
  H   H41       1.0  0.1256517537545151  0.23866857615916193  0.6630379471818479  1.0000
  H   H42       1.0  0.37434824677963174  0.7386685760883189  0.8369620527124687  1.0000
  H   H43       1.0  0.8743482463862446  0.7613314236991521  0.3369620525811736  1.0000
  H   H44       1.0  0.625651753361128  0.26133142376999513  0.1630379470505527  1.0000
  C   C1        1.0  0.8717377182103689  0.5340967476990696  0.6359402546459467  1.0000
  C   C2        1.0  0.6282622820007707  0.0340967467553554  0.8640597449985854  1.0000
  C   C3        1.0  0.1282622819303908  0.4659032531738016  0.36405974511707473  1.0000
  C   C4        1.0  0.37173771813998907  0.9659032531029587  0.13594025476443602  1.0000
  C   C5        1.0  0.04975665840852479  0.6488696865183586  0.6464877211067022  1.0000
  C   C6        1.0  0.4502433421393896  0.14886968658920158  0.8535122792893763  1.0000
  C   C7        1.0  0.9502433417460026  0.3511303133399555  0.3535122791580812  1.0000
  C   C8        1.0  0.5497566580151377  0.8511303132691125  0.14648772097540708  1.0000
  C   C9        1.0  0.03991559172545677  0.7412079921991518  0.699716665986678  1.0000
  C   C10       1.0  0.4600844088086901  0.24120799226999473  0.8002833339076387  1.0000
  C   C11       1.0  0.9600844084153031  0.2587920076591623  0.30028333377634353  1.0000
  C   C12       1.0  0.5399155913458372  0.7587920075883193  0.19971666635714475  1.0000
  C   C13       1.0  0.19652779647487478  0.8543021697763309  0.7064517400600488  1.0000
  C   C14       1.0  0.30347220215570697  0.35430216984717394  0.7935482597655557  1.0000
  C   C15       1.0  0.8034722036796526  0.1456978300819831  0.2935482602047345  1.0000
  C   C16       1.0  0.6965277979850528  0.6456978300111401  0.2064517399974658  1.0000
  C   C17       1.0  0.3695747490284566  0.8762532680483179  0.6606264196183305  1.0000
  C   C18       1.0  0.13042524960212518  0.37625326710460383  0.8393735802072739  1.0000
  C   C19       1.0  0.6304252511123032  0.12374673282455324  0.339373580144691  1.0000
  C   C20       1.0  0.8695747505386348  0.6237467327537103  0.1606264195557474  1.0000
  C   C21       1.0  0.3839808027648896  0.7837367858509787  0.6076729406651651  1.0000
  C   C22       1.0  0.11601919778302473  0.28373678592182167  0.8923270597309134  1.0000
  C   C23       1.0  0.6160191973896376  0.2162632140073354  0.3923270595996183  1.0000
  C   C24       1.0  0.8839808023715026  0.7162632139364924  0.10767294053386994  1.0000
  C   C25       1.0  0.22308541929322087  0.6719063740683263  0.6006238770783832  1.0000
  C   C26       1.0  0.276914581240926  0.17190637413916937  0.8993761228159335  1.0000
  C   C27       1.0  0.7769145808475387  0.3280936257899877  0.39937612268463835  1.0000
  C   C28       1.0  0.7230854188998338  0.8280936257191447  0.10062387694708796  1.0000
  C   C29       1.0  0.33845239095356866  0.27563177541670375  0.5804462978356855  1.0000
  C   C30       1.0  0.16154760958057823  0.7756317753458608  0.9195537020586312  1.0000
  C   C31       1.0  0.6615476091871911  0.7243682244416103  0.41955370192733604  1.0000
  C   C32       1.0  0.838452390573949  0.22436822451245328  0.08044629820615218  1.0000
  C   C33       1.0  0.13980123936262165  0.1750015737561665  0.5500385515640711  1.0000
  C   C34       1.0  0.3601987611715252  0.6750015736853235  0.9499614483302457  1.0000
  C   C35       1.0  0.8601987607781382  0.8249984261021475  0.4499614481989504  1.0000
  C   C36       1.0  0.6398012389692346  0.3249984261729905  0.05003855143277594  1.0000
  C   C37       1.0  0.9588819140955076  0.12169276402034834  0.5957268438729867  1.0000
  C   C38       1.0  0.5411180861156321  0.6216927639495053  0.9042731557715455  1.0000
  C   C39       1.0  0.04111808604525211  0.8783072358379658  0.40427315589003476  1.0000
  C   C40       1.0  0.4588819140251278  0.3783072359088087  0.09572684399147605  1.0000
  N   N1        1.0  0.7669579109294095  0.48603178688141907  0.6879428649170496  1.0000
  N   N2        1.0  0.7330420892954977  0.986031786810576  0.8120571352292446  1.0000
  N   N3        1.0  0.23304208922511782  0.513968212976895  0.3120571353477338  1.0000
  N   N4        1.0  0.2669579108452621  0.013968213047737965  0.18794286453377693  1.0000
  O   O1        1.0  0.8186684571228302  0.4849121521110926  0.5762310283110915  1.0000
  O   O2        1.0  0.681331543102077  0.9849121520402497  0.9237689718352028  1.0000
  O   O3        1.0  0.18133154301792964  0.5150878477472215  0.42376897145193  1.0000
  O   O4        1.0  0.3186684570524503  0.015087847818064437  0.07623102842958074  1.0000
  O   O5        1.0  0.5162200039282899  0.989075772600112  0.6696018214375585  1.0000
  O   O6        1.0  0.9837799962828497  0.48907577267095503  0.8303981782069737  1.0000
  O   O7        1.0  0.4837799962124698  0.010924227258201986  0.330398178325463  1.0000
  O   O8        1.0  0.016220003857910024  0.5109242271873591  0.16960182155604778  1.0000
  O   O9        1.0  0.4944492931351038  0.31531966311392784  0.5406424608894633  1.0000
  O   O10       1.0  0.005550705495477997  0.8153196630430849  0.9593575389361412  1.0000
  O   O11       1.0  0.5055507070056561  0.6846803367443862  0.4593575388735581  1.0000
  O   O12       1.0  0.9944492946590494  0.1846803368152292  0.04064246132864222  1.0000
  O   O13       1.0  0.3448461489352929  0.3159767460875279  0.640717588846325  1.0000
  O   O14       1.0  0.15515385159885392  0.8159767460166849  0.8592824110479916  1.0000
  O   O15       1.0  0.6551538512054669  0.6840232547853433  0.3592824109166965  1.0000
  O   O16       1.0  0.8448461485419059  0.18402325485618626  0.14071758871502985  1.0000
  O   O17       1.0  0.7986339597378308  0.03382318056643616  0.5752866120313668  1.0000
  O   O18       1.0  0.7013660404870764  0.5338231804955932  0.9247133881149274  1.0000
  O   O19       1.0  0.20136604040292894  0.9661768192918779  0.42471338773165473  1.0000
  O   O20       1.0  0.29863395966745093  0.4661768193627209  0.07528661214985607  1.0000
  O   O21       1.0  0.9729587297551365  0.17183972788377755  0.6574826177231596  1.0000
  O   O22       1.0  0.5270412704697706  0.6718397278129347  0.8425173824231346  1.0000
  O   O23       1.0  0.02704127039939068  0.8281602719745365  0.3425173825416237  1.0000
  O   O24       1.0  0.47295872967098923  0.3281602720453795  0.15748261733988697  1.0000
