data_image0
_chemical_formula_structural       H24C22N4O10
_chemical_formula_sum              "H24 C22 N4 O10"
_cell_length_a       5.648860520791185
_cell_length_b       6.573326275587238
_cell_length_c       14.865253340084358
_cell_angle_alpha    89.00902496137584
_cell_angle_beta     85.87440105596257
_cell_angle_gamma    73.77115783040124

_space_group_name_H-M_alt    "P 1"
_space_group_IT_number       1

loop_
  _space_group_symop_operation_xyz
  'x, y, z'

loop_
  _atom_site_type_symbol
  _atom_site_label
  _atom_site_symmetry_multiplicity
  _atom_site_fract_x
  _atom_site_fract_y
  _atom_site_fract_z
  _atom_site_occupancy
  H   H1        1.0  0.6597725387510747  0.7511423591084951  0.5958695012168819  1.0000
  H   H2        1.0  0.34022746203968207  0.24885764103255287  0.4041304982368436  1.0000
  H   H3        1.0  0.8870662309863456  0.7583514409092574  0.5101231248475002  1.0000
  H   H4        1.0  0.11293376980494357  0.24164855922923287  0.489876875278939  1.0000
  H   H5        1.0  0.6993131523587778  0.7054065704511897  0.04983329434024534  1.0000
  H   H6        1.0  0.3006868466610256  0.2945934296770243  0.9501667058345817  1.0000
  H   H7        1.0  0.015950103839859824  0.6462386717138683  0.07018546042543106  1.0000
  H   H8        1.0  0.9840498951799435  0.3537613284143458  0.9298145397493962  1.0000
  H   H9        1.0  0.033720274993190046  0.6097944409279963  0.38605276271296096  1.0000
  H   H10       1.0  0.9662797240260806  0.39020555920277555  0.6139472367891524  1.0000
  H   H11       1.0  0.1486644124834967  0.5785971304122881  0.2242997382370215  1.0000
  H   H12       1.0  0.8513355883077925  0.42140286972620206  0.7757002618894178  1.0000
  H   H13       1.0  0.3825842492636593  0.7976684040177823  0.16684959449748663  1.0000
  H   H14       1.0  0.6174157515276298  0.20233159612070806  0.8331504056289526  1.0000
  H   H15       1.0  0.2645673419743748  0.8300222347941529  0.3314389503139844  1.0000
  H   H16       1.0  0.735432657044896  0.16997776533661887  0.668561049188129  1.0000
  H   H17       1.0  0.23871901803829731  0.7952196238149201  0.5763429415283282  1.0000
  H   H18       1.0  0.7612809809815061  0.20478037631329374  0.42365705864649905  1.0000
  H   H19       1.0  0.5356256645770057  0.7327968120302905  0.8063054579110162  1.0000
  H   H20       1.0  0.46437433621428353  0.26720318810819965  0.193694542215423  1.0000
  H   H21       1.0  0.8747113291549915  0.8905008738192877  0.7807331102165062  1.0000
  H   H22       1.0  0.12528866986481177  0.1094991263089263  0.21926688995832108  1.0000
  H   H23       1.0  0.9596426661061135  0.8729030815574097  0.9321709192153469  1.0000
  H   H24       1.0  0.04035733468517577  0.1270969185810803  0.06782908091109228  1.0000
  C   C1        1.0  0.5561319878611133  0.738937520014409  0.46718006180316546  1.0000
  C   C2        1.0  0.4438680111581574  0.2610624801163628  0.532819937698948  1.0000
  C   C3        1.0  0.6379040344722411  0.7224765518853938  0.37109639147241025  1.0000
  C   C4        1.0  0.3620959663185156  0.2775234482556542  0.6289036079813152  1.0000
  C   C5        1.0  0.8877865545553953  0.6541629131595086  0.33924850143374935  1.0000
  C   C6        1.0  0.11221344623536138  0.3458370869815395  0.6607514980199761  1.0000
  C   C7        1.0  0.9547742743711615  0.6353252023793303  0.24762409830875085  1.0000
  C   C8        1.0  0.04522572642012779  0.3646747977591598  0.7523759018176884  1.0000
  C   C9        1.0  0.7739554855631832  0.6870084637946797  0.18347414763824077  1.0000
  C   C10       1.0  0.2260445134566202  0.3129915363335342  0.8165258525365864  1.0000
  C   C11       1.0  0.5226400620436622  0.7566772326341955  0.21577255000588472  1.0000
  C   C12       1.0  0.4773599369761411  0.24332276749401838  0.7842274501689424  1.0000
  C   C13       1.0  0.4579170467403026  0.7732382791326712  0.30716062653660803  1.0000
  C   C14       1.0  0.5420829522795007  0.22676172099554273  0.6928393736382191  1.0000
  C   C15       1.0  0.23667577449475993  0.8061750493375816  0.7129233838940104  1.0000
  C   C16       1.0  0.7633242245245109  0.19382495079319026  0.28707661560810294  1.0000
  C   C17       1.0  0.068651422373099  0.8450203452967321  0.7952863284458203  1.0000
  C   C18       1.0  0.9313485784181903  0.15497965484175805  0.20471367168061883  1.0000
  C   C19       1.0  0.11843936563245272  0.8322820677802238  0.8830075540697281  1.0000
  C   C20       1.0  0.8815606333873505  0.16771793234799004  0.11699244610509908  1.0000
  C   C21       1.0  0.3572180073354483  0.7725369784893299  0.9255972686127497  1.0000
  C   C22       1.0  0.6427819934553084  0.2274630216517183  0.0744027308409757  1.0000
  N   N1        1.0  0.7157264693564683  0.7455258164089451  0.5286548541324537  1.0000
  N   N2        1.0  0.2842735301904896  0.2544741821348628  0.47134514603899363  1.0000
  N   N3        1.0  0.8370850358038583  0.6685427832851522  0.09357251475028404  1.0000
  N   N4        1.0  0.16291496498743102  0.33145721685333784  0.9064274853761551  1.0000
  O   O1        1.0  0.33173987540187977  0.7469684999280745  0.49117567156737213  1.0000
  O   O2        1.0  0.6682601236179236  0.2530315002001393  0.5088243286074551  1.0000
  O   O3        1.0  0.1192000103941702  0.8369032286196326  0.6394422326227681  1.0000
  O   O4        1.0  0.8807999886256331  0.1630967715085813  0.36055776755205904  1.0000
  O   O5        1.0  0.46951616056680695  0.750325970700328  0.7122700902016134  1.0000
  O   O6        1.0  0.5304838402244821  0.24967402943816222  0.28772990992482583  1.0000
  O   O7        1.0  0.3591302691301485  0.7687745279255908  0.00914827663329861  1.0000
  O   O8        1.0  0.6408697298896547  0.23122547220262318  0.9908517235415285  1.0000
  O   O9        1.0  0.5680759722136088  0.7231792658946089  0.874641986642524  1.0000
  O   O10       1.0  0.43192402733334895  0.276820732649199  0.1253580135289232  1.0000
