data_image0
_chemical_formula_structural       H56C40N16O20
_chemical_formula_sum              "H56 C40 N16 O20"
_cell_length_a       3.7491622336109622
_cell_length_b       30.496213987698283
_cell_length_c       10.849516847251767
_cell_angle_alpha    90.0
_cell_angle_beta     98.77752779824445
_cell_angle_gamma    90.0

_space_group_name_H-M_alt    "P 1"
_space_group_IT_number       1

loop_
  _space_group_symop_operation_xyz
  'x, y, z'

loop_
  _atom_site_type_symbol
  _atom_site_label
  _atom_site_symmetry_multiplicity
  _atom_site_fract_x
  _atom_site_fract_y
  _atom_site_fract_z
  _atom_site_occupancy
  H   H1        1.0  0.8011509565621885  0.6538444627271899  0.2791123814802431  1.0000
  H   H2        1.0  0.19884904232514417  0.153844462853407  0.220887618618131  1.0000
  H   H3        1.0  0.19884904206443788  0.34615553734828547  0.7208876181707401  1.0000
  H   H4        1.0  0.8011509562753312  0.8461555372220684  0.7791123819531299  1.0000
  H   H5        1.0  0.990021202989793  0.7894685235259635  0.26830067385305983  1.0000
  H   H6        1.0  0.009978795923690794  0.289468523324271  0.23169932532503654  1.0000
  H   H7        1.0  0.009978795636833373  0.21053147654951196  0.7316993257979234  1.0000
  H   H8        1.0  0.9900212027029355  0.710531476423295  0.7683006743259466  1.0000
  H   H9        1.0  0.37960014535765924  0.713194433209759  0.5997108410424503  1.0000
  H   H10       1.0  0.6203998529821096  0.21319443300806643  0.9002891590814198  1.0000
  H   H11       1.0  0.6203998532689672  0.2868055668657165  0.400289158608533  1.0000
  H   H12       1.0  0.3796001456183656  0.786805567067409  0.09971084148984118  1.0000
  H   H13       1.0  0.10663195110571777  0.6472113314774682  0.488561678673604  1.0000
  H   H14       1.0  0.8933680504803592  0.1472113312757758  0.011438321576010983  1.0000
  H   H15       1.0  0.8933680502196528  0.3527886685980071  0.5114383211286201  1.0000
  H   H16       1.0  0.10663195081886037  0.8527886687996996  0.9885616791464907  1.0000
  H   H17       1.0  0.7265675658768505  0.7196053237576434  0.16957272671033655  1.0000
  H   H18       1.0  0.2734324357092265  0.21960532388386053  0.3304272735392785  1.0000
  H   H19       1.0  0.27343243542236906  0.28039467631783194  0.8304272740121652  1.0000
  H   H20       1.0  0.726567565616144  0.7803946761916148  0.6695727262629456  1.0000
  H   H21       1.0  0.07997702080828646  0.4715988140626727  0.3105281514509192  1.0000
  H   H22       1.0  0.9200229808039415  0.9715988142643652  0.18947184787841795  1.0000
  H   H23       1.0  0.9200229805170841  0.5284011856848932  0.6894718483513048  1.0000
  H   H24       1.0  0.07997702052142905  0.0284011858111103  0.8105281519238062  1.0000
  H   H25       1.0  0.4108019454753115  0.5498870671869155  0.02876202808256608  1.0000
  H   H26       1.0  0.589198053412021  0.04988706731313259  0.47123797201580814  1.0000
  H   H27       1.0  0.5891980531513148  0.45011293288855986  0.9712379715684172  1.0000
  H   H28       1.0  0.41080194518845414  0.9501129327623429  0.528762028555453  1.0000
  H   H29       1.0  0.5168432118060852  0.5954151681688955  0.4121424152718518  1.0000
  H   H30       1.0  0.4831567870812475  0.09541516796720309  0.0878575848265223  1.0000
  H   H31       1.0  0.48315678682054114  0.4045848319065799  0.5878575843791314  1.0000
  H   H32       1.0  0.5168432115192277  0.9045848317803628  0.9121424157447388  1.0000
  H   H33       1.0  0.15235002106656656  0.47984671723194683  0.10081806609586529  1.0000
  H   H34       1.0  0.8476499805195103  0.9798467171057297  0.3991819341537497  1.0000
  H   H35       1.0  0.847649980258804  0.5201532828435287  0.8991819337063589  1.0000
  H   H36       1.0  0.15235002077970913  0.020153282969745688  0.6008180665687521  1.0000
  H   H37       1.0  0.2416210183111651  0.5255135396959347  0.4649258243107093  1.0000
  H   H38       1.0  0.7583789832749118  0.025513539822151703  0.03507417593890569  1.0000
  H   H39       1.0  0.7583789829880543  0.47448646005163125  0.5350741764117926  1.0000
  H   H40       1.0  0.2416210180504588  0.9744864602533237  0.9649258238633184  1.0000
  H   H41       1.0  0.05124688341711307  0.8325669009353751  0.48597923551406597  1.0000
  H   H42       1.0  0.9487531154702196  0.3325669010615922  0.01402076458430813  1.0000
  H   H43       1.0  0.9487531151833621  0.1674330991401003  0.514020765057195  1.0000
  H   H44       1.0  0.051246883156406735  0.6674330990138831  0.9859792350666753  1.0000
  H   H45       1.0  0.7765536487426382  0.8706644228267374  0.5471698770746102  1.0000
  H   H46       1.0  0.2234463522958749  0.3706644229529543  0.9528301232005008  1.0000
  H   H47       1.0  0.22344635258273232  0.12933557724873812  0.45283012272761386  1.0000
  H   H48       1.0  0.7765536490294956  0.6293355771225211  0.04716987660172335  1.0000
  H   H49       1.0  0.953261099630119  0.8817632762823345  0.41307699079401583  1.0000
  H   H50       1.0  0.04673889925721371  0.3817632760806421  0.08692300930435831  1.0000
  H   H51       1.0  0.04673889899650739  0.11823672379314083  0.5869230088569674  1.0000
  H   H52       1.0  0.9532610993694127  0.6182367236669237  0.9130769903466248  1.0000
  H   H53       1.0  0.6273989861689308  0.843630469683158  0.4148091661999655  1.0000
  H   H54       1.0  0.3726010127184019  0.34363046980937517  0.08519083389840862  1.0000
  H   H55       1.0  0.37260101243154437  0.1563695300644078  0.5851908343712956  1.0000
  H   H56       1.0  0.6273989859082244  0.6563695302661002  0.9148091657525745  1.0000
  C   C1        1.0  0.20880656612413565  0.7580984016352296  0.44524842719900704  1.0000
  C   C2        1.0  0.791193432763197  0.2580984014335371  0.054751572899367065  1.0000
  C   C3        1.0  0.7911934325024906  0.2419015984402459  0.5547515724519763  1.0000
  C   C4        1.0  0.20880656583727822  0.7419015986419384  0.945248427671894  1.0000
  C   C5        1.0  0.019043582842717136  0.7586949471607607  0.31998165161961173  1.0000
  C   C6        1.0  0.9809564187433598  0.25869494695906814  0.1800183486300032  1.0000
  C   C7        1.0  0.9809564184826534  0.2413050529147148  0.6800183481826124  1.0000
  C   C8        1.0  0.019043582582010807  0.7413050527884977  0.8199816511722208  1.0000
  C   C9        1.0  0.23940136996620318  0.71600215091644  0.5047734511932878  1.0000
  C   C10       1.0  0.76059863107231  0.21600215071474763  0.9952265490818234  1.0000
  C   C11       1.0  0.7605986313330163  0.28399784915903525  0.49522654952921413  1.0000
  C   C12       1.0  0.2394013675543164  0.7839978490328182  0.004773450569160002  1.0000
  C   C13       1.0  0.09041983950793797  0.679408437990299  0.44434844891979314  1.0000
  C   C14       1.0  0.9095801593793946  0.17940843778860652  0.05565155117858096  1.0000
  C   C15       1.0  0.9095801591186883  0.3205915620851764  0.5556515507311902  1.0000
  C   C16       1.0  0.09041983922108054  0.8205915622868689  0.9443484493926801  1.0000
  C   C17       1.0  0.8767264225447383  0.720889672366156  0.26416058154756117  1.0000
  C   C18       1.0  0.12327357904133852  0.22088967249237304  0.23583941870205385  1.0000
  C   C19       1.0  0.1232735787806322  0.2791103273814099  0.7358394182546629  1.0000
  C   C20       1.0  0.8767264222578809  0.7791103275831024  0.7641605820204479  1.0000
  C   C21       1.0  0.4949961134241781  0.5793073801595987  0.21423181264014812  1.0000
  C   C22       1.0  0.5050038854631546  0.07930738028581569  0.285768187458226  1.0000
  C   C23       1.0  0.5050038852024482  0.42069261991587675  0.7857681870108351  1.0000
  C   C24       1.0  0.49499611583606484  0.9206926197896597  0.7142318132642758  1.0000
  C   C25       1.0  0.3829247207912832  0.5450471421372179  0.126177317090327  1.0000
  C   C26       1.0  0.6170752781222005  0.04504714226343497  0.37382268208776936  1.0000
  C   C27       1.0  0.6170752805340873  0.4549528579382575  0.8738226827118971  1.0000
  C   C28       1.0  0.3829247205044257  0.9549528578120405  0.6261773175632139  1.0000
  C   C29       1.0  0.440686385354608  0.5709493462704471  0.3400568607509413  1.0000
  C   C30       1.0  0.55931361625762  0.0709493460687546  0.15994313857839587  1.0000
  C   C31       1.0  0.5593136159707626  0.4290506538050284  0.6599431390512828  1.0000
  C   C32       1.0  0.4406863850677506  0.9290506536788113  0.8400568612238282  1.0000
  C   C33       1.0  0.23890689501142004  0.5068860844902114  0.16352060818164135  1.0000
  C   C34       1.0  0.7610931038759126  0.006886084288518918  0.33647939191673276  1.0000
  C   C35       1.0  0.7610931036152063  0.493113915585264  0.836479391469342  1.0000
  C   C36       1.0  0.23890689744945792  0.9931139157869565  0.6635206078854913  1.0000
  C   C37       1.0  0.2909235134403976  0.5322832423247029  0.3706050309446656  1.0000
  C   C38       1.0  0.7090764881456793  0.03228324245091995  0.12939496930494934  1.0000
  C   C39       1.0  0.709076487884973  0.46771675775077254  0.6293949688575584  1.0000
  C   C40       1.0  0.2909235131796913  0.9677167576245554  0.8706050304972747  1.0000
  N   N1        1.0  0.9128664191203745  0.6820515995326635  0.3258775229601254  1.0000
  N   N2        1.0  0.08713358246570233  0.1820515996588805  0.17412247728948957  1.0000
  N   N3        1.0  0.087133582204996  0.317948400542812  0.6741224768420987  1.0000
  N   N4        1.0  0.9128664188596682  0.817948400416595  0.8258775225127346  1.0000
  N   N5        1.0  0.1957199764000802  0.500598104281345  0.28407949813127636  1.0000
  N   N6        1.0  0.8042800251859967  0.0005981040796525662  0.2159205021183386  1.0000
  N   N7        1.0  0.8042800248991392  0.49940189579413036  0.7159205025912255  1.0000
  N   N8        1.0  0.19571997613937386  0.9994018956679133  0.7840794976838855  1.0000
  N   N9        1.0  0.7689891850510007  0.4035069200709251  0.27954795266870175  1.0000
  N   N10       1.0  0.23101081656122735  0.903506919944708  0.22045204666063542  1.0000
  N   N11       1.0  0.23101081627436992  0.5964930800045504  0.7204520471335223  1.0000
  N   N12       1.0  0.7689891847641431  0.09649307980285783  0.7795479531415888  1.0000
  N   N13       1.0  0.8525696731906665  0.8576190339741905  0.46540431710988456  1.0000
  N   N14       1.0  0.14743032839541037  0.3576190341004076  0.034595683139730445  1.0000
  N   N15       1.0  0.14743032813470405  0.14238096577337536  0.5345956826923396  1.0000
  N   N16       1.0  0.8525696729038091  0.6423809659750679  0.9654043175827712  1.0000
  O   O1        1.0  0.34216625945603146  0.7928795466136807  0.5018317628612825  1.0000
  O   O2        1.0  0.6578337388837374  0.2928795464119881  0.9981682372625877  1.0000
  O   O3        1.0  0.657833739170595  0.20712045346179486  0.4981682367897008  1.0000
  O   O4        1.0  0.34216625974288883  0.7071204536634874  0.001831762388395539  1.0000
  O   O5        1.0  0.6352138708508615  0.6150928170154727  0.18233349167446672  1.0000
  O   O6        1.0  0.3647861280364713  0.11509281714168976  0.3176665084239075  1.0000
  O   O7        1.0  0.3647861277757649  0.38490718306000277  0.8176665079765167  1.0000
  O   O8        1.0  0.635213870590155  0.8849071829337857  0.6823334912270759  1.0000
  O   O9        1.0  0.8046374616177735  0.41957781497603364  0.1727800239335498  1.0000
  O   O10       1.0  0.1953625372695592  0.9195778151777261  0.32721997616482434  1.0000
  O   O11       1.0  0.19536253700885287  0.5804221850994418  0.8272199757174333  1.0000
  O   O12       1.0  0.8046374613309162  0.0804221848977493  0.6727800244064368  1.0000
  O   O13       1.0  0.8810313016278937  0.4260716184389778  0.3768473547528756  1.0000
  O   O14       1.0  0.11896869725943907  0.9260716183127606  0.1231526453454985  1.0000
  O   O15       1.0  0.11896869697258165  0.5739283816364976  0.6231526458183854  1.0000
  O   O16       1.0  0.8810313040659314  0.07392838143480518  0.8768473544567256  1.0000
  O   O17       1.0  0.6279658600584708  0.36662059967542404  0.2876933637217219  1.0000
  O   O18       1.0  0.372034141527606  0.866620599549207  0.2123066365278931  1.0000
  O   O19       1.0  0.37203414126689965  0.6333794004000514  0.7123066360805023  1.0000
  O   O20       1.0  0.6279658597977645  0.13337940052626845  0.787693363274331  1.0000
