data_image0
_chemical_formula_structural       H56C66N12S8
_chemical_formula_sum              "H56 C66 N12 S8"
_cell_length_a       10.2100322187278
_cell_length_b       11.054405884699314
_cell_length_c       13.261677615054383
_cell_angle_alpha    80.45920346559326
_cell_angle_beta     83.13578906632566
_cell_angle_gamma    90.33860866393267

_space_group_name_H-M_alt    "P 1"
_space_group_IT_number       1

loop_
  _space_group_symop_operation_xyz
  'x, y, z'

loop_
  _atom_site_type_symbol
  _atom_site_label
  _atom_site_symmetry_multiplicity
  _atom_site_fract_x
  _atom_site_fract_y
  _atom_site_fract_z
  _atom_site_occupancy
  H   H1        1.0  0.8556110433355537  0.9599537094499331  0.06259722828466653  1.0000
  H   H2        1.0  0.14438895692543585  0.0400462900900281  0.9374027717467891  1.0000
  H   H3        1.0  0.05220117565792953  0.877300664841197  0.9674590634799315  1.0000
  H   H4        1.0  0.9477988246030602  0.12269933469876412  0.03254093655152396  1.0000
  H   H5        1.0  0.08260230068907778  0.6536175115293784  0.9843262005001787  1.0000
  H   H6        1.0  0.9173976986034346  0.34638248892094686  0.015673799501904662  1.0000
  H   H7        1.0  0.9142759965171056  0.5091514286581439  0.09498759521624889  1.0000
  H   H8        1.0  0.08572400374388396  0.49084857088181727  0.9050124048152066  1.0000
  H   H9        1.0  0.6468449839807423  0.5009495663262608  0.043984184622036564  1.0000
  H   H10       1.0  0.35315501629844204  0.4990504341312417  0.9560158152890031  1.0000
  H   H11       1.0  0.5607110776682792  0.40653278501676227  0.9069459730250693  1.0000
  H   H12       1.0  0.43928892160603844  0.5934672145160215  0.09305402709742985  1.0000
  H   H13       1.0  0.5460907545214037  0.17896576404542838  0.9232107112210515  1.0000
  H   H14       1.0  0.45390924573958596  0.8210342354945328  0.07678928881040398  1.0000
  H   H15       1.0  0.6318520324940907  0.04668142518794853  0.07178397012443659  1.0000
  H   H16       1.0  0.3681479677850938  0.9533185752695541  0.928216029786603  1.0000
  H   H17       1.0  0.7050358800213588  0.9919690433994242  0.2297061718727255  1.0000
  H   H18       1.0  0.2949641202578257  0.008030957058078218  0.7702938280383143  1.0000
  H   H19       1.0  0.6491139280558704  0.8710770101495634  0.44167416296474193  1.0000
  H   H20       1.0  0.3508860722233141  0.12892299030793913  0.5583258369462978  1.0000
  H   H21       1.0  0.5419020527052145  0.9962148453002215  0.7852474651838031  1.0000
  H   H22       1.0  0.45809794656910313  0.0037851542325622106  0.2147525349386962  1.0000
  H   H23       1.0  0.7210321910363863  0.012457731183868956  0.8968547217692366  1.0000
  H   H24       1.0  0.2789678092427981  0.9875422692736336  0.10314527814180305  1.0000
  H   H25       1.0  0.9547094498504677  0.9713094556398001  0.8316081566119733  1.0000
  H   H26       1.0  0.04529054942384993  0.028690543892983797  0.16839184351052583  1.0000
  H   H27       1.0  0.00661286831563605  0.9116833328456411  0.6595782236473644  1.0000
  H   H28       1.0  0.9933871309586817  0.08831666668714273  0.34042177647513466  1.0000
  H   H29       1.0  0.4878371249299675  0.9396789957292547  0.6067303250186016  1.0000
  H   H30       1.0  0.512162875331022  0.0603210038107063  0.39326967501285387  1.0000
  H   H31       1.0  0.8639654166429567  0.765678562636978  0.300450252609291  1.0000
  H   H32       1.0  0.13603458363622767  0.23432143782052464  0.6995497473017487  1.0000
  H   H33       1.0  0.9187826009488799  0.8241064828987749  0.468148479655909  1.0000
  H   H34       1.0  0.08121739832543763  0.17589351663400896  0.5318515204665901  1.0000
  H   H35       1.0  0.34417964410391644  0.6852653361787282  0.24407884005608527  1.0000
  H   H36       1.0  0.6558203561752681  0.3147346642787744  0.7559211598549543  1.0000
  H   H37       1.0  0.48953029574391116  0.710715729344041  0.37801318388214816  1.0000
  H   H38       1.0  0.5104697045352733  0.28928427111346144  0.6219868160288914  1.0000
  H   H39       1.0  0.38996224141206837  0.7735293964623929  0.544700775660616  1.0000
  H   H40       1.0  0.6100377588671162  0.2264706039951097  0.45529922425042363  1.0000
  H   H41       1.0  0.15031049712262198  0.8117520991777808  0.5727787306982569  1.0000
  H   H42       1.0  0.8496895031383677  0.18824790036218034  0.42722126933319854  1.0000
  H   H43       1.0  0.09714005370472716  0.6985487441877615  0.19538079168804762  1.0000
  H   H44       1.0  0.9028599455877853  0.30145125626256386  0.8046192083140357  1.0000
  H   H45       1.0  0.9954677971327817  0.4385501706838698  0.32093660720093914  1.0000
  H   H46       1.0  0.004532203146402629  0.5614498297736329  0.6790633927101004  1.0000
  H   H47       1.0  0.07447244710190958  0.37064926425823197  0.1525628448305098  1.0000
  H   H48       1.0  0.9255275531772751  0.6293507361992706  0.8474371550805297  1.0000
  H   H49       1.0  0.4683781870397239  0.3373284980998289  0.2426280806996774  1.0000
  H   H50       1.0  0.5316218122527886  0.6626715023504963  0.7573719193024061  1.0000
  H   H51       1.0  0.31199657092886873  0.3208252973369489  0.11302699624023226  1.0000
  H   H52       1.0  0.6880034283636437  0.6791747031133764  0.8869730037618511  1.0000
  H   H53       1.0  0.49118361761770696  0.39400370624643355  0.4282163441245114  1.0000
  H   H54       1.0  0.5088163826432827  0.6059962932935276  0.5717836559069439  1.0000
  H   H55       1.0  0.30485377200143093  0.46117390761480936  0.5780360319405146  1.0000
  H   H56       1.0  0.6951462272728867  0.5388260919179743  0.42196396818198467  1.0000
  C   C1        1.0  0.7736367891039259  0.7820487431563291  0.13284075167409376  1.0000
  C   C2        1.0  0.22636321117525857  0.2179512573011735  0.8671592482369459  1.0000
  C   C3        1.0  0.868643098501031  0.8613375178427819  0.06872984891334052  1.0000
  C   C4        1.0  0.13135690175995862  0.13866248169717915  0.9312701511181148  1.0000
  C   C5        1.0  0.9782383463194928  0.8152428707713298  0.01568075149682522  1.0000
  C   C6        1.0  0.02176165297301971  0.1847571296789955  0.9843192485052582  1.0000
  C   C7        1.0  0.9953313271240792  0.68877521680609  0.024316351609678294  1.0000
  C   C8        1.0  0.004668673136910331  0.3112247827338711  0.9756836484217771  1.0000
  C   C9        1.0  0.9014374867901082  0.6079520924463185  0.08626401447461018  1.0000
  C   C10       1.0  0.09856251348907627  0.39204790801118405  0.9137359854364294  1.0000
  C   C11       1.0  0.7928486202909562  0.6542559484789998  0.14023868240643228  1.0000
  C   C12       1.0  0.20715137997003338  0.3457440510609612  0.8597613176250233  1.0000
  C   C13       1.0  0.6863220424215715  0.32790867990829503  0.13492305105278427  1.0000
  C   C14       1.0  0.31367795687094113  0.6720913205420301  0.865076948949299  1.0000
  C   C15       1.0  0.6439965794465182  0.4015115452867211  0.04917225078614119  1.0000
  C   C16       1.0  0.35600342081447134  0.5984884542532399  0.9508277492453143  1.0000
  C   C17       1.0  0.595533235460451  0.3481688950820575  0.9724446322660352  1.0000
  C   C18       1.0  0.40446676481873356  0.6518311053754451  0.02755536764500455  1.0000
  C   C19       1.0  0.5897504649438029  0.22050776618106324  0.9809653614809355  1.0000
  C   C20       1.0  0.41024953531718666  0.7794922333588978  0.019034638550520004  1.0000
  C   C21       1.0  0.6362201684675456  0.14664442068205055  0.06433114334916983  1.0000
  C   C22       1.0  0.363779831793444  0.8533555788579106  0.9356688566822856  1.0000
  C   C23       1.0  0.6856049356532884  0.19876022812800231  0.1422924352703678  1.0000
  C   C24       1.0  0.3143950646258961  0.8012397723295002  0.8577075646406719  1.0000
  C   C25       1.0  0.6446775066696038  0.9776962807873582  0.7622808955016559  1.0000
  C   C26       1.0  0.35532249360958074  0.022303719670144342  0.23771910440938362  1.0000
  C   C27       1.0  0.744465151336891  0.9864738665060014  0.8213326296739406  1.0000
  C   C28       1.0  0.25553484892409867  0.013526133033959577  0.17866737035751487  1.0000
  C   C29       1.0  0.8762388793122681  0.9632181924871909  0.784321170821138  1.0000
  C   C30       1.0  0.12376112094872142  0.03678180705277023  0.2156788292103174  1.0000
  C   C31       1.0  0.9059362261620519  0.9298995452118634  0.6888033813771715  1.0000
  C   C32       1.0  0.09406377313046033  0.0701004552384619  0.311196618624912  1.0000
  C   C33       1.0  0.8035879095242717  0.9194533532755539  0.6284481742538441  1.0000
  C   C34       1.0  0.196412090736718  0.08054664626440716  0.3715518257776113  1.0000
  C   C35       1.0  0.5934053211687703  0.9279416576182775  0.5937596620461044  1.0000
  C   C36       1.0  0.4065946790922193  0.07205834192168355  0.406240337985351  1.0000
  C   C37       1.0  0.6753626265654245  0.8934873054560781  0.5135763125164521  1.0000
  C   C38       1.0  0.32463737369556517  0.10651269408388286  0.4864236875150034  1.0000
  C   C39       1.0  0.9627592500738003  0.7586204381206875  0.32273492413258326  1.0000
  C   C40       1.0  0.03724075018718928  0.24137956141927353  0.6772650758988722  1.0000
  C   C41       1.0  0.30750842922454247  0.7124558571608605  0.3170910613439367  1.0000
  C   C42       1.0  0.69249157006797  0.2875441432894647  0.6829089386581466  1.0000
  C   C43       1.0  0.38448579109270486  0.7269674603046284  0.3922521121611514  1.0000
  C   C44       1.0  0.6155142091682847  0.2730325392353326  0.607747887870304  1.0000
  C   C45       1.0  0.32839534051366764  0.7632382074937395  0.4849959315731807  1.0000
  C   C46       1.0  0.671604659747322  0.23676179204622155  0.5150040684582747  1.0000
  C   C47       1.0  0.19536550860614346  0.7850656069578965  0.5015144302675413  1.0000
  C   C48       1.0  0.804634491654846  0.21493439258206448  0.49848556976391417  1.0000
  C   C49       1.0  0.11871727116417008  0.7708187394098835  0.42347177409624015  1.0000
  C   C50       1.0  0.8812827290968196  0.22918126013007745  0.5765282259352154  1.0000
  C   C51       1.0  0.07719464092394097  0.7257473635770922  0.270330596801837  1.0000
  C   C52       1.0  0.9228053583503766  0.27425263595569155  0.7296694033206621  1.0000
  C   C53       1.0  0.2912804926630952  0.44385649493565876  0.501657632149407  1.0000
  C   C54       1.0  0.7087195076160894  0.5561435055218438  0.4983423677616326  1.0000
  C   C55       1.0  0.1873117572130895  0.4246370270975064  0.37284117975809  1.0000
  C   C56       1.0  0.8126882430479001  0.5753629724424547  0.6271588202733654  1.0000
  C   C57       1.0  0.09801512957524573  0.41643062425420846  0.30075537872751956  1.0000
  C   C58       1.0  0.9019848697172669  0.5835693761961169  0.6992446212745639  1.0000
  C   C59       1.0  0.14245272899450734  0.379829641481994  0.20834335037740245  1.0000
  C   C60       1.0  0.8575472712664822  0.6201703580579672  0.791656649654053  1.0000
  C   C61       1.0  0.36469581217706076  0.35917894749791696  0.25462483876373937  1.0000
  C   C62       1.0  0.6353041880839287  0.6408210520420441  0.745375161267716  1.0000
  C   C63       1.0  0.27699663592731194  0.3511452640301923  0.18530809537836468  1.0000
  C   C64       1.0  0.7230033643518725  0.6488547364273103  0.8146919045326751  1.0000
  C   C65       1.0  0.3862826109699569  0.4086139464073068  0.4292819879802629  1.0000
  C   C66       1.0  0.6137173892910327  0.5913860531326542  0.5707180120511925  1.0000
  N   N1        1.0  0.6743898629599581  0.9445311282332423  0.6671936438051602  1.0000
  N   N2        1.0  0.32561013631435937  0.05546887129954141  0.3328063563173389  1.0000
  N   N3        1.0  0.8038384272367328  0.8883816060793019  0.5345514948670588  1.0000
  N   N4        1.0  0.19616157304245171  0.11161839437820054  0.4654485050439809  1.0000
  N   N5        1.0  0.17520681301830585  0.7338623318488673  0.3331242167785356  1.0000
  N   N6        1.0  0.8247931872426836  0.26613766769109376  0.66687578325292  1.0000
  N   N7        1.0  0.9895078128638793  0.7865069288045767  0.41512698511472457  1.0000
  N   N8        1.0  0.010492187415305233  0.2134930716529258  0.5848730147963153  1.0000
  N   N9        1.0  0.17018862779103214  0.45448480907035926  0.4674086053709652  1.0000
  N   N10       1.0  0.8298113715014803  0.5455151913799661  0.5325913946311182  1.0000
  N   N11       1.0  0.3208605409751067  0.39570661291746057  0.34645900805017915  1.0000
  N   N12       1.0  0.6791394583174057  0.6042933875328647  0.6535409919519043  1.0000
  S   S1        1.0  0.6685908887714781  0.5643649178096238  0.22610785880982187  1.0000
  S   S2        1.0  0.3314091114895115  0.43563508173033716  0.7738921412216336  1.0000
  S   S3        1.0  0.740274804635876  0.3887038239566534  0.23918859808278173  1.0000
  S   S4        1.0  0.2597251956251136  0.6112961755833077  0.7608114019486737  1.0000
  S   S5        1.0  0.6376919094617394  0.8287829984767214  0.20803290108610528  1.0000
  S   S6        1.0  0.3623080898125782  0.17121700105606225  0.791967099036394  1.0000
  S   S7        1.0  0.7461568125725445  0.10993658951173985  0.24902274896274562  1.0000
  S   S8        1.0  0.2538431877066399  0.8900634109457627  0.750977250948294  1.0000
