data_image0
_chemical_formula_structural       H112C52N8O16
_chemical_formula_sum              "H112 C52 N8 O16"
_cell_length_a       9.118618723932496
_cell_length_b       14.688310985302797
_cell_length_c       12.465096556434897
_cell_angle_alpha    90.0
_cell_angle_beta     107.52529077858067
_cell_angle_gamma    90.0

_space_group_name_H-M_alt    "P 1"
_space_group_IT_number       1

loop_
  _space_group_symop_operation_xyz
  'x, y, z'

loop_
  _atom_site_type_symbol
  _atom_site_label
  _atom_site_symmetry_multiplicity
  _atom_site_fract_x
  _atom_site_fract_y
  _atom_site_fract_z
  _atom_site_occupancy
  H   H1        1.0  0.3484170904429445  0.45007807886249745  0.13702311581297102  1.0000
  H   H2        1.0  0.1515829095249271  0.9500780786819867  0.3629768839396312  1.0000
  H   H3        1.0  0.6515829094927986  0.5499219214572945  0.8629768836922336  1.0000
  H   H4        1.0  0.848417090410816  0.04992192095699176  0.6370231155655733  1.0000
  H   H5        1.0  0.26598728955284506  0.33940912981678867  0.09747497804912253  1.0000
  H   H6        1.0  0.23401271041502653  0.8394091296362779  0.40252502170347976  1.0000
  H   H7        1.0  0.7340127103828981  0.6605908698221897  0.902525021456082  1.0000
  H   H8        1.0  0.7659872895207167  0.16059087000270056  0.5974749778017248  1.0000
  H   H9        1.0  0.45156583858405785  0.3679178719328154  0.08619833288779669  1.0000
  H   H10       1.0  0.04843416138381372  0.8679178717523046  0.41380166686480563  1.0000
  H   H11       1.0  0.548434161350244  0.6320821283869765  0.9138016674193299  1.0000
  H   H12       1.0  0.9515658385519293  0.13208212788667384  0.586198332640399  1.0000
  H   H13       1.0  0.650282500113219  0.45244801915276167  0.256988675833765  1.0000
  H   H14       1.0  0.8497175002495938  0.952448018972251  0.24301132408744266  1.0000
  H   H15       1.0  0.3497174998210829  0.5475519811670302  0.7430113244733615  1.0000
  H   H16       1.0  0.15028249968614943  0.047551980666727514  0.7569886754177618  1.0000
  H   H17       1.0  0.8355136241154292  0.6715288170212078  0.2299742223816751  1.0000
  H   H18       1.0  0.6644863750973472  0.1715288172017187  0.2700257772851927  1.0000
  H   H19       1.0  0.1644863758188727  0.328471183298584  0.7700257779254516  1.0000
  H   H20       1.0  0.33551362483839603  0.8284711831180732  0.7299742222200118  1.0000
  H   H21       1.0  0.6756397262651441  0.7029535724244572  0.11398044411195425  1.0000
  H   H22       1.0  0.8243602740962273  0.202953572604968  0.38601955661117543  1.0000
  H   H23       1.0  0.32436027366915776  0.29704642721452124  0.8860195561951724  1.0000
  H   H24       1.0  0.17563972583807455  0.7970464277148239  0.6139804436959511  1.0000
  H   H25       1.0  0.8020984962757309  0.611821916011451  0.10229683770671609  1.0000
  H   H26       1.0  0.6979015029370453  0.11182191619196172  0.3977031619601517  1.0000
  H   H27       1.0  0.19790150366001225  0.3881780836275275  0.8977031617984885  1.0000
  H   H28       1.0  0.30209849699725644  0.8881780834470168  0.6022968383469748  1.0000
  H   H29       1.0  0.626076049375402  0.37084022359346247  0.4508662659747087  1.0000
  H   H30       1.0  0.8739239509874107  0.8708402234129516  0.049133733946499024  1.0000
  H   H31       1.0  0.37392395056034117  0.6291597767263295  0.5491337335304959  1.0000
  H   H32       1.0  0.1260760489468911  0.12915977622602676  0.9508662663606274  1.0000
  H   H33       1.0  0.4448996890637877  0.2629114112483091  0.44600619618951987  1.0000
  H   H34       1.0  0.05510031090408387  0.7629114110677984  0.05399380356308237  1.0000
  H   H35       1.0  0.555100310870514  0.7370885890714828  0.5539938041176066  1.0000
  H   H36       1.0  0.9448996890316592  0.23708858857118012  0.9460061959421222  1.0000
  H   H37       1.0  0.6298855805647986  0.30960999290867414  0.6812498477192581  1.0000
  H   H38       1.0  0.8701144193373748  0.8096099927281634  0.8187501523404708  1.0000
  H   H39       1.0  0.37011441936950334  0.6903900074111178  0.31875015258786854  1.0000
  H   H40       1.0  0.12988558059836827  0.19039000691081504  0.18124984716473377  1.0000
  H   H41       1.0  0.5936562060799531  0.1594278567728545  0.7282550690079751  1.0000
  H   H42       1.0  0.9063437938222204  0.6594278565923437  0.7717449310517537  1.0000
  H   H43       1.0  0.40634379385579  0.8405721435469373  0.27174493049722936  1.0000
  H   H44       1.0  0.09365620611208152  0.3405721430466347  0.22825506925537287  1.0000
  H   H45       1.0  0.4107079598536587  0.13124840915534702  0.7431569092942167  1.0000
  H   H46       1.0  0.08929203965357359  0.6312484089748363  0.7568430905969065  1.0000
  H   H47       1.0  0.5892920400820845  0.8687515904836314  0.25684309021098767  1.0000
  H   H48       1.0  0.9107079602807283  0.3687515906641422  0.24315690971022008  1.0000
  H   H49       1.0  0.4745497477664297  0.24646240085890803  0.7565779022184471  1.0000
  H   H50       1.0  0.02545025174080269  0.7464624013592106  0.7434220976726764  1.0000
  H   H51       1.0  0.5254502521678722  0.7535375987800703  0.24342209808867954  1.0000
  H   H52       1.0  0.9745497481949403  0.2535375989605812  0.2565779018325282  1.0000
  H   H53       1.0  0.7193358269599781  0.45145294422449905  0.7442643686197574  1.0000
  H   H54       1.0  0.7806641729421951  0.9514529440439883  0.7557356314399714  1.0000
  H   H55       1.0  0.28066417297432367  0.5485470554144795  0.2557356316873691  1.0000
  H   H56       1.0  0.21933582699354792  0.04854705559499019  0.2442643680652332  1.0000
  H   H57       1.0  0.9137430424674535  0.4811791346923406  0.7578536895640273  1.0000
  H   H58       1.0  0.58625695743472  0.9811791351926433  0.7421463104957013  1.0000
  H   H59       1.0  0.08625695746828964  0.5188208649466379  0.24214630994117717  1.0000
  H   H60       1.0  0.41374304249958194  0.01882086512714866  0.2578536898114251  1.0000
  H   H61       1.0  0.8606290492671126  0.36462370012174633  0.7562035378737454  1.0000
  H   H62       1.0  0.6393709506350609  0.8646236999412356  0.7437964621859835  1.0000
  H   H63       1.0  0.13937095066863062  0.6353763001980456  0.2437964616314592  1.0000
  H   H64       1.0  0.360629049299241  0.13537630037855633  0.25620353812114305  1.0000
  H   H65       1.0  0.9578010028489975  0.3296337444682846  0.5912782181465299  1.0000
  H   H66       1.0  0.542198997053176  0.8296337442877738  0.908721781913199  1.0000
  H   H67       1.0  0.042198997085304404  0.6703662551706938  0.4087217821605967  1.0000
  H   H68       1.0  0.45780100288112585  0.17036625535120462  0.09127821839392758  1.0000
  H   H69       1.0  0.026904337879466462  0.443793849852616  0.5959923505429666  1.0000
  H   H70       1.0  0.47309566277780224  0.9437938503529186  0.9040076496024966  1.0000
  H   H71       1.0  0.9730956620548353  0.5562061497863625  0.4040076497641599  1.0000
  H   H72       1.0  0.5269043371564996  0.05620614996687319  0.09599235070462983  1.0000
  H   H73       1.0  0.902851716182776  0.39827613439377374  0.46794893788333364  1.0000
  H   H74       1.0  0.5971482830300003  0.898276134213263  0.032051061783534215  1.0000
  H   H75       1.0  0.09714828375296719  0.6017238659260181  0.532051061621871  1.0000
  H   H76       1.0  0.40285171690430155  0.10172386610652895  0.9679489385235922  1.0000
  H   H77       1.0  0.7050895350239706  0.5280195720093624  0.45345317719313083  1.0000
  H   H78       1.0  0.7949104653388421  0.02801957218987325  0.04654682272807687  1.0000
  H   H79       1.0  0.29491046606180893  0.47198042762961595  0.5465468225664136  1.0000
  H   H80       1.0  0.20508953459545975  0.9719804281299187  0.9534531775790497  1.0000
  H   H81       1.0  0.8319200594005018  0.5766556589437155  0.578068147577439  1.0000
  H   H82       1.0  0.6680799405016717  0.07665565912422631  0.9219318524822898  1.0000
  H   H83       1.0  0.16807994053524142  0.4233443406952629  0.4219318519277656  1.0000
  H   H84       1.0  0.3319200594326302  0.9233443411955656  0.07806814782483672  1.0000
  H   H85       1.0  0.638513180143114  0.5505972169361228  0.5710365204549787  1.0000
  H   H86       1.0  0.8614868197590595  0.0505972171166336  0.9289634796047501  1.0000
  H   H87       1.0  0.36148681979262925  0.44940278338366907  0.42896347905022597  1.0000
  H   H88       1.0  0.1385131801752423  0.9494027832031583  0.07103652070237627  1.0000
  H   H89       1.0  0.23804418808137193  0.3001754881423562  0.5990361446584139  1.0000
  H   H90       1.0  0.26195581257589684  0.8001754879618455  0.9009638554870493  1.0000
  H   H91       1.0  0.7619558118529299  0.6998245121774357  0.4009638556487126  1.0000
  H   H92       1.0  0.7380441873598463  0.1998245123579465  0.09903614401815515  1.0000
  H   H93       1.0  0.16594601165154413  0.18726884001518815  0.6000692360690728  1.0000
  H   H94       1.0  0.3340539890057246  0.6872688398346773  0.8999307640763905  1.0000
  H   H95       1.0  0.8340539894342355  0.8127311603046038  0.39993076369047176  1.0000
  H   H96       1.0  0.6659460109285773  0.31273115980430105  0.10006923623073596  1.0000
  H   H97       1.0  0.17349633267694514  0.23669773083364007  0.4712663740562823  1.0000
  H   H98       1.0  0.32650366729092645  0.7366977313339428  0.028733625696319997  1.0000
  H   H99       1.0  0.826503667258798  0.7633022688053384  0.5287336254489222  1.0000
  H   H100      1.0  0.6734963326433753  0.26330226898584913  0.9712663746108064  1.0000
  H   H101      1.0  0.33398194633901285  0.10813477475996246  0.4341581535408511  1.0000
  H   H102      1.0  0.16601805362885874  0.6081347752602652  0.0658418462117512  1.0000
  H   H103      1.0  0.666018053595289  0.891865224879016  0.5658418467662755  1.0000
  H   H104      1.0  0.8339819463068845  0.39186522505952676  0.9341581532934533  1.0000
  H   H105      1.0  0.32240108957180014  0.052914893399091355  0.5584764866687842  1.0000
  H   H106      1.0  0.17759890993543218  0.5529148932185806  0.9415235132223391  1.0000
  H   H107      1.0  0.6775989103625017  0.9470851062398871  0.4415235136383423  1.0000
  H   H108      1.0  0.8224010900003109  0.44708510642039784  0.05847648628286544  1.0000
  H   H109      1.0  0.5058977983711764  0.07414393398190633  0.5395602336705468  1.0000
  H   H110      1.0  0.9941022026810334  0.5741439338013956  0.9604397666435219  1.0000
  H   H111      1.0  0.49410220271316174  0.9258560663378855  0.4604397668909196  1.0000
  H   H112      1.0  0.005897798404746147  0.42585606651839636  0.03956023311602261  1.0000
  C   C1        1.0  0.44782653953946067  0.34524858338540004  0.256235824509976  1.0000
  C   C2        1.0  0.052173460428410916  0.8452485832048893  0.24376417524262625  1.0000
  C   C3        1.0  0.5521734603948412  0.6547514162535785  0.7437641757971505  1.0000
  C   C4        1.0  0.9478265395073322  0.15475141643408918  0.7562358242625784  1.0000
  C   C5        1.0  0.3724138660230598  0.37673915506942984  0.1366422884251044  1.0000
  C   C6        1.0  0.12758613394481177  0.8767391548889191  0.36335771132749783  1.0000
  C   C7        1.0  0.6275861339126835  0.6232608452503621  0.8633577110801002  1.0000
  C   C8        1.0  0.8724138659909313  0.12326084475005938  0.6366422881777066  1.0000
  C   C9        1.0  0.6467428871819284  0.5781870834909291  0.19686574917476793  1.0000
  C   C10       1.0  0.8532571131808843  0.07818708367143992  0.3031342507464398  1.0000
  C   C11       1.0  0.3532571127538147  0.42181291614804933  0.8031342503304367  1.0000
  C   C12       1.0  0.14674288675341762  0.9218129159675384  0.6968657495606867  1.0000
  C   C13       1.0  0.7445097615374094  0.6453645221349856  0.157149321314927  1.0000
  C   C14       1.0  0.7554902388254032  0.14536452231549646  0.3428506786062807  1.0000
  C   C15       1.0  0.25549023839689233  0.35463547818480623  0.8428506789921996  1.0000
  C   C16       1.0  0.24450976111033998  0.8546354780042954  0.6571493208989239  1.0000
  C   C17       1.0  0.592495509261948  0.3122458099225391  0.5898080192907176  1.0000
  C   C18       1.0  0.9075044906416667  0.8122458097420282  0.9101919799670893  1.0000
  C   C19       1.0  0.4075044906737952  0.6877541897164393  0.4101919802144871  1.0000
  C   C20       1.0  0.09249550929407643  0.1877541898969501  0.08980801953811521  1.0000
  C   C21       1.0  0.7877555686458673  0.432463350371326  0.5932379109183559  1.0000
  C   C22       1.0  0.7122444312563062  0.9324633501908152  0.9067620891413729  1.0000
  C   C23       1.0  0.2122444312898759  0.5675366499484659  0.40676208858684865  1.0000
  C   C24       1.0  0.2877555686779956  0.0675366501289767  0.0932379111657536  1.0000
  C   C25       1.0  0.3957452324864235  0.19329356267312658  0.5845898484927468  1.0000
  C   C26       1.0  0.1042547670208088  0.6932935624926158  0.9154101513983766  1.0000
  C   C27       1.0  0.6042547674478784  0.8067064376466654  0.41541015181437974  1.0000
  C   C28       1.0  0.8957452329149344  0.30670643714636264  0.084589848106828  1.0000
  C   C29       1.0  0.47415814381781973  0.1824886532346757  0.7108890588920647  1.0000
  C   C30       1.0  0.02584185568941263  0.6824886530541648  0.7891109409990585  1.0000
  C   C31       1.0  0.5258418561179234  0.8175113464043027  0.28911094061313974  1.0000
  C   C32       1.0  0.9741581442448892  0.3175113465848135  0.21088905930806792  1.0000
  C   C33       1.0  0.8219001647421126  0.4320291098377219  0.7207315107228859  1.0000
  C   C34       1.0  0.6780998351600609  0.9320291103380246  0.779268489336843  1.0000
  C   C35       1.0  0.17809983519363062  0.5679708898012564  0.27926848878231875  1.0000
  C   C36       1.0  0.32190016477424094  0.06797088998176727  0.22073151097028357  1.0000
  C   C37       1.0  0.9277281412062778  0.39918056445474487  0.5599320627069593  1.0000
  C   C38       1.0  0.5722718586958956  0.8991805642742341  0.9400679373527696  1.0000
  C   C39       1.0  0.07227185872802397  0.600819435865047  0.4400679376001673  1.0000
  C   C40       1.0  0.4277281412384063  0.10081943604555785  0.05993206295435696  1.0000
  C   C41       1.0  0.7379129750313234  0.5278269971106672  0.5458239798181734  1.0000
  C   C42       1.0  0.7620870248708501  0.02782699729117793  0.9541760202415553  1.0000
  C   C43       1.0  0.2620870249029785  0.47217300320912475  0.4541760204889531  1.0000
  C   C44       1.0  0.23791297506345177  0.972173003028614  0.04582398006557117  1.0000
  C   C45       1.0  0.2328877470693686  0.2320233104684462  0.5620254566582435  1.0000
  C   C46       1.0  0.26711225243786374  0.7320233109687488  0.93797454323288  1.0000
  C   C47       1.0  0.7671122528649333  0.7679766891705322  0.43797454364888305  1.0000
  C   C48       1.0  0.7328877474978794  0.267976689351043  0.062025456272324676  1.0000
  C   C49       1.0  0.38935128169334315  0.10135697844971175  0.5250988306594087  1.0000
  C   C50       1.0  0.11064871781388913  0.601356978269201  0.9749011692317148  1.0000
  C   C51       1.0  0.6106487182409587  0.8986430211892668  0.4749011696477178  1.0000
  C   C52       1.0  0.8893512821204127  0.3986430213697774  0.025098831075411873  1.0000
  N   N1        1.0  0.6594149366940655  0.3702926010650418  0.539048293282361  1.0000
  N   N2        1.0  0.8405850632081079  0.8702926008845311  0.9609517067773679  1.0000
  N   N3        1.0  0.3405850632416777  0.62970739925475  0.4609517062228436  1.0000
  N   N4        1.0  0.15941493672619395  0.12970739943526086  0.03904829352975866  1.0000
  N   N5        1.0  0.4826359137038277  0.25639777941577696  0.5337591798682344  1.0000
  N   N6        1.0  0.017364086953441053  0.7563977799160796  0.9662408202772289  1.0000
  N   N7        1.0  0.5173640862304741  0.7436022202232014  0.46624082043889215  1.0000
  N   N8        1.0  0.9826359129808607  0.24360222040371227  0.03375918002989761  1.0000
  O   O1        1.0  0.5800163557863682  0.380474985557694  0.30810378723220994  1.0000
  O   O2        1.0  0.9199836445764444  0.8804749860579967  0.19189621268899776  1.0000
  O   O3        1.0  0.4199836441493749  0.6195250140812845  0.6918962122729947  1.0000
  O   O4        1.0  0.08001635535785737  0.11952501426179521  0.8081037876181287  1.0000
  O   O5        1.0  0.3807271495781301  0.28804868743816153  0.3005841669323364  1.0000
  O   O6        1.0  0.11927285038974152  0.7880486872576508  0.19941583282026581  1.0000
  O   O7        1.0  0.619272850357613  0.7119513122008169  0.6994158325728682  1.0000
  O   O8        1.0  0.8807271495445602  0.21195131238132767  0.8005841674868606  1.0000
  O   O9        1.0  0.7176169511745386  0.49864338366260513  0.2271848696327721  1.0000
  O   O10       1.0  0.7823830491882741  0.9986433834820944  0.27281513028843557  1.0000
  O   O11       1.0  0.2823830487597632  0.5013566166571868  0.7728151306743544  1.0000
  O   O12       1.0  0.21761695074746906  0.0013566168376975727  0.7271848692167688  1.0000
  O   O13       1.0  0.5166335623937062  0.5953953350218855  0.20237588976493373  1.0000
  O   O14       1.0  0.9833664379691064  0.09539533452158282  0.297624110156274  1.0000
  O   O15       1.0  0.48336643754059566  0.4046046652979064  0.7976241105421928  1.0000
  O   O16       1.0  0.01663356311667309  0.9046046651173957  0.7023758896032705  1.0000
