data_image0
_chemical_formula_structural       H116C108N12O16I4
_chemical_formula_sum              "H116 C108 N12 O16 I4"
_cell_length_a       9.584686990371294
_cell_length_b       11.074760270484768
_cell_length_c       23.954417113574927
_cell_angle_alpha    88.01655482970989
_cell_angle_beta     85.99043300457518
_cell_angle_gamma    80.8165630415713

_space_group_name_H-M_alt    "P 1"
_space_group_IT_number       1

loop_
  _space_group_symop_operation_xyz
  'x, y, z'

loop_
  _atom_site_type_symbol
  _atom_site_label
  _atom_site_symmetry_multiplicity
  _atom_site_fract_x
  _atom_site_fract_y
  _atom_site_fract_z
  _atom_site_occupancy
  H   H1        1.0  0.493403798764452  0.5997095589102772  0.6513039061479695  1.0000
  H   H2        1.0  0.5065962014587629  0.4002904404185158  0.3486960936674759  1.0000
  H   H3        1.0  0.3272573231816814  0.37978348839348647  0.6221789908063063  1.0000
  H   H4        1.0  0.6727426767894026  0.6202165118359363  0.3778210094242189  1.0000
  H   H5        1.0  0.3275496557639576  0.5610001802969674  0.6272051612888297  1.0000
  H   H6        1.0  0.6724503442071263  0.4389998199324553  0.3727948389416955  1.0000
  H   H7        1.0  0.11619850526703349  0.41191379087567515  0.5117188949020508  1.0000
  H   H8        1.0  0.8838014947850008  0.5880862093679416  0.4882811049099073  1.0000
  H   H9        1.0  0.9082796890215985  0.5449071408638806  0.6987182346961603  1.0000
  H   H10       1.0  0.09172031094948521  0.4550928593655422  0.3012817655343649  1.0000
  H   H11       1.0  0.4226491591479604  0.08481102337570305  0.5241404797956253  1.0000
  H   H12       1.0  0.5773508409943042  0.9151889759388959  0.4758595204383873  1.0000
  H   H13       1.0  0.7136819546345612  0.6684383300821399  0.6739584683295775  1.0000
  H   H14       1.0  0.2863180455886536  0.3315616692466532  0.32604153148586784  1.0000
  H   H15       1.0  0.6195382059195178  0.8200533345598713  0.6730100949341778  1.0000
  H   H16       1.0  0.3804617943036971  0.17994666476892177  0.32698990488126745  1.0000
  H   H17       1.0  0.12578367627460307  0.21665086300314165  0.5960836545804729  1.0000
  H   H18       1.0  0.8742163236964808  0.7833491372262812  0.4039163456500524  1.0000
  H   H19       1.0  0.3078818723778902  0.17120970422960977  0.6063021852837617  1.0000
  H   H20       1.0  0.6921181275931936  0.828790295999813  0.39369781494676354  1.0000
  H   H21       1.0  0.17194755652648963  0.4231723495745732  0.40941309486035393  1.0000
  H   H22       1.0  0.8280524434445942  0.5768276506548494  0.5905869053701714  1.0000
  H   H23       1.0  0.13382187308586999  0.8312612515166927  0.7457735625983577  1.0000
  H   H24       1.0  0.8661781259240923  0.16873874872435632  0.25422643720942967  1.0000
  H   H25       1.0  0.4781602391501115  0.0946353360012645  0.4210119448801564  1.0000
  H   H26       1.0  0.5218397610731034  0.9053646633275287  0.5789880549352889  1.0000
  H   H27       1.0  0.0143144090851598  0.2354622169848677  0.09290497288991621  1.0000
  H   H28       1.0  0.9856855910571048  0.7645377823297314  0.9070950273440964  1.0000
  H   H29       1.0  0.7796275278136604  0.0540932570354347  0.14104005772189418  1.0000
  H   H30       1.0  0.22037247223837375  0.9459067432081821  0.858959942090064  1.0000
  H   H31       1.0  0.8321090276746134  0.20639872633394846  0.11600353700234133  1.0000
  H   H32       1.0  0.16789097229647038  0.7936012738954744  0.8839964632281838  1.0000
  H   H33       1.0  0.5834990535234996  0.00675406344305352  0.031599289786750084  1.0000
  H   H34       1.0  0.4165009465285345  0.9932459368005634  0.968400710025208  1.0000
  H   H35       1.0  0.6533860603749877  0.8953429146195087  0.9426596436566571  1.0000
  H   H36       1.0  0.34661393967704635  0.1046570856241083  0.057340356155300906  1.0000
  H   H37       1.0  0.7737891715044783  0.5690465603599844  0.18000951769506057  1.0000
  H   H38       1.0  0.22621082854755575  0.43095343988363266  0.8199904821168975  1.0000
  H   H39       1.0  0.8181472068660165  0.7091762459180796  0.12275773718975705  1.0000
  H   H40       1.0  0.18185279310506744  0.2908237543113431  0.8772422630407682  1.0000
  H   H41       1.0  0.4381650763220203  0.34800740191473056  0.20447617962265552  1.0000
  H   H42       1.0  0.5618349236490635  0.6519925983146924  0.7955238206078699  1.0000
  H   H43       1.0  0.8871182736860967  0.5993255212886129  0.03532041355291959  1.0000
  H   H44       1.0  0.11288172628498712  0.40067447894080993  0.9646795866776058  1.0000
  H   H45       1.0  0.25956747175826855  0.2937645975766703  0.1029250877338272  1.0000
  H   H46       1.0  0.7404325282937656  0.7062354026669465  0.8970749120781307  1.0000
  H   H47       1.0  0.19257029000930753  0.42749655890048194  0.06439414851999195  1.0000
  H   H48       1.0  0.8074297100427266  0.5725034413431349  0.9356058512919662  1.0000
  H   H49       1.0  0.5225082176663759  0.9359374423340554  0.1434386186850091  1.0000
  H   H50       1.0  0.47749178238565826  0.06406255790956145  0.8565613811269489  1.0000
  H   H51       1.0  0.6804623063441214  0.8671272290580838  0.17353040826105695  1.0000
  H   H52       1.0  0.3195376937981432  0.13287277025651528  0.8264695919729556  1.0000
  H   H53       1.0  0.9749921338280602  0.867705289531734  0.011548849812617982  1.0000
  H   H54       1.0  0.025007866395154846  0.1322947097970591  0.9884511500028274  1.0000
  H   H55       1.0  0.14113566376917966  0.9122431491332489  0.9949370625877945  1.0000
  H   H56       1.0  0.8588643362019043  0.08775685109617384  0.0050629376427309015  1.0000
  H   H57       1.0  0.1390772598159538  0.7405374604685188  0.04668038231459862  1.0000
  H   H58       1.0  0.86092274015513  0.2594625397609041  0.9533196179159268  1.0000
  H   H59       1.0  0.16725491860989686  0.6842598558533676  0.11472556837326833  1.0000
  H   H60       1.0  0.8327450815323678  0.3157401434612314  0.8852744318607442  1.0000
  H   H61       1.0  0.24104681337024533  0.8386421468922673  0.17612107931818605  1.0000
  H   H62       1.0  0.7589531866817888  0.16135785335134956  0.8238789204937719  1.0000
  H   H63       1.0  0.14469505687250406  0.9897314812014798  0.1721729170510114  1.0000
  H   H64       1.0  0.85530494317953  0.010268519042136905  0.8278270827609467  1.0000
  H   H65       1.0  0.034384482845209396  0.6565449053857966  0.2091846627384708  1.0000
  H   H66       1.0  0.9656155171258746  0.34345509484362624  0.7908153374920545  1.0000
  H   H67       1.0  0.7932314866213894  0.7120859423279814  0.27824157011583645  1.0000
  H   H68       1.0  0.2067685123885727  0.28791405791306757  0.7217584296919509  1.0000
  H   H69       1.0  0.747167002943094  0.9668178863519787  0.2806938833422343  1.0000
  H   H70       1.0  0.252832997280121  0.033182112976814476  0.7193061164732111  1.0000
  H   H71       1.0  0.3676514591495903  0.8375727514299068  0.049617928398602955  1.0000
  H   H72       1.0  0.6323485409024437  0.16242724881370993  0.9503820714133551  1.0000
  H   H73       1.0  0.39912280168869163  0.7547834768659942  0.11300555143601204  1.0000
  H   H74       1.0  0.6008771982823922  0.24521652336342845  0.8869944487945134  1.0000
  H   H75       1.0  0.3841609306510228  0.5591172724846947  0.06117589428783957  1.0000
  H   H76       1.0  0.6158390693200612  0.44088272774472814  0.9388241059426856  1.0000
  H   H77       1.0  0.5314640520150259  0.6316835098327048  0.040976849378791105  1.0000
  H   H78       1.0  0.468535947956058  0.368316490396718  0.9590231508517343  1.0000
  H   H79       1.0  0.2586077914770958  0.6651175652225475  0.9769025532615734  1.0000
  H   H80       1.0  0.7413922087461191  0.3348824341062456  0.023097446553871897  1.0000
  H   H81       1.0  0.4135457491845982  0.7290597536235769  0.9577349658339447  1.0000
  H   H82       1.0  0.586454250867436  0.27094024662004  0.04226503397801334  1.0000
  H   H83       1.0  0.4167284134961431  0.5690213817234937  0.9560708928017435  1.0000
  H   H84       1.0  0.5832715865558911  0.4309786185201232  0.04392910701021463  1.0000
  H   H85       1.0  0.6529581506195258  0.4658708889494643  0.47611106600114816  1.0000
  H   H86       1.0  0.34704184952273875  0.5341291103651347  0.5238889342328644  1.0000
  H   H87       1.0  0.5263331185606706  0.3671175578265006  0.480274386466951  1.0000
  H   H88       1.0  0.4736668816625443  0.6328824415022924  0.5197256133484944  1.0000
  H   H89       1.0  0.8599859221280973  0.27901159479429277  0.6289495396454551  1.0000
  H   H90       1.0  0.1400140779239369  0.7209884054493239  0.3710504601665029  1.0000
  H   H91       1.0  0.7068068944609974  0.3801072979648949  0.6510340525283994  1.0000
  H   H92       1.0  0.29319310551008637  0.6198927022645279  0.3489659477021259  1.0000
  H   H93       1.0  0.6027179953159042  0.9761626037655782  0.7414849437602034  1.0000
  H   H94       1.0  0.3972820046551797  0.023837396463844404  0.25851505647032197  1.0000
  H   H95       1.0  0.8153626094585983  0.11641214973991923  0.7191575536851047  1.0000
  H   H96       1.0  0.18463739068366658  0.8835878495746797  0.28084244654890794  1.0000
  H   H97       1.0  0.4196400157165859  0.04472296897324089  0.6593859708793811  1.0000
  H   H98       1.0  0.5803599843354482  0.9552770312703759  0.3406140289325769  1.0000
  H   H99       1.0  0.7053883079095934  0.19060869727062854  0.4725837672568289  1.0000
  H   H100      1.0  0.29461169206149046  0.8093913029587942  0.5274162329736964  1.0000
  H   H101      1.0  0.8097812253561919  0.09820029519810274  0.5205520877223697  1.0000
  H   H102      1.0  0.19021877469584225  0.9017997050455141  0.4794479120895883  1.0000
  H   H103      1.0  0.8297521132962935  0.3682797737015252  0.4939953384475571  1.0000
  H   H104      1.0  0.17024788675574085  0.6317202265420916  0.5060046613644009  1.0000
  H   H105      1.0  0.9251035947766403  0.27643490383357555  0.5436457688152057  1.0000
  H   H106      1.0  0.07489640527539392  0.7235650964100412  0.4563542309967524  1.0000
  H   H107      1.0  0.9250528695293021  0.23330649505953188  0.4172489349293693  1.0000
  H   H108      1.0  0.07494713044178188  0.7666935051698909  0.5827510653011561  1.0000
  H   H109      1.0  0.0309682454962975  0.14351844076217302  0.4649148611873363  1.0000
  H   H110      1.0  0.9690317544747865  0.8564815594672498  0.535085139043189  1.0000
  H   H111      1.0  0.9269347020047533  0.9578226899249569  0.4398524494688658  1.0000
  H   H112      1.0  0.07306529804728087  0.04217731031865996  0.5601475503430923  1.0000
  H   H113      1.0  0.011849960730180457  0.0231802060495706  0.38046802384253536  1.0000
  H   H114      1.0  0.9881500393218536  0.9768197941940463  0.6195319759694228  1.0000
  H   H115      1.0  0.8244136723127904  0.04865310749111975  0.39012692510561653  1.0000
  H   H116      1.0  0.1755863266971719  0.9513468927499291  0.6098730747021709  1.0000
  C   C1        1.0  0.11856332191664705  0.5418433862724584  0.6604832800445067  1.0000
  C   C2        1.0  0.881436678306568  0.45815661305633465  0.33951671977093867  1.0000
  C   C3        1.0  0.26611897535723883  0.2479770647482931  0.5247274400294932  1.0000
  C   C4        1.0  0.733881024613845  0.7520229354811296  0.47527256020103215  1.0000
  C   C5        1.0  0.23981578709819423  0.5968339366003507  0.6564061786691955  1.0000
  C   C6        1.0  0.7601842129538398  0.4031660636432662  0.34359382114276255  1.0000
  C   C7        1.0  0.3298809561193633  0.2596989740350829  0.4083965077561636  1.0000
  C   C8        1.0  0.6701190440229013  0.740301025279516  0.5916034924778489  1.0000
  C   C9        1.0  0.24627812366184462  0.699324057073874  0.6878553631380765  1.0000
  C   C10       1.0  0.7537218755192985  0.3006759422523512  0.3121446366731981  1.0000
  C   C11       1.0  0.37750574268131726  0.7569374880471645  0.6850188853892104  1.0000
  C   C12       1.0  0.6224942572897666  0.2430625121822581  0.3149811148413148  1.0000
  C   C13       1.0  0.1963910202336151  0.34270414915811603  0.4918494114659275  1.0000
  C   C14       1.0  0.8036089798184191  0.6572958510855007  0.5081505883460307  1.0000
  C   C15       1.0  0.007197920472650773  0.6945555294785718  0.7258029991375095  1.0000
  C   C16       1.0  0.9928020794984331  0.30544447075085096  0.2741970010930158  1.0000
  C   C17       1.0  0.0014533398149942749  0.5902153467079428  0.6955542650192742  1.0000
  C   C18       1.0  0.9985466604082206  0.40978465262085023  0.3044457347961711  1.0000
  C   C19       1.0  0.36734622045597004  0.1585548199530263  0.49874873370677075  1.0000
  C   C20       1.0  0.6326537795960641  0.8414451802905905  0.5012512661051873  1.0000
  C   C21       1.0  0.10895875236545045  0.4323208013883107  0.6274716934385667  1.0000
  C   C22       1.0  0.8910412476865837  0.5676791988553063  0.37252830637339135  1.0000
  C   C23       1.0  0.6309574567598736  0.730775679938816  0.6534390104952215  1.0000
  C   C24       1.0  0.3690425432112102  0.2692243202906067  0.3465609897353039  1.0000
  C   C25       1.0  0.2315895934989292  0.24172543246670994  0.5870473606338511  1.0000
  C   C26       1.0  0.7684104067242856  0.758274566862083  0.4129526391815942  1.0000
  C   C27       1.0  0.22791584297037717  0.3486550304545844  0.43425480168622105  1.0000
  C   C28       1.0  0.7720841570007068  0.6513449697748384  0.5657451985443043  1.0000
  C   C29       1.0  0.12873820998619956  0.7499881697388159  0.7222254012783568  1.0000
  C   C30       1.0  0.8712617890237627  0.2500118305022332  0.27777459852943065  1.0000
  C   C31       1.0  0.39884659517460735  0.1641960009681233  0.4411035470322074  1.0000
  C   C32       1.0  0.6011534050486077  0.8358039983606697  0.5588964527832379  1.0000
  C   C33       1.0  0.7731519514882187  0.7387720914784773  0.9828013257088553  1.0000
  C   C34       1.0  0.2268480484828652  0.2612279087509455  0.017198674521670038  1.0000
  C   C35       1.0  0.7672494175278407  0.2799001214271868  0.1391870203871138  1.0000
  C   C36       1.0  0.23275058244324312  0.720099878802236  0.8608129798434115  1.0000
  C   C37       1.0  0.8181634140240063  0.3897616644367034  0.14527698773031616  1.0000
  C   C38       1.0  0.18183658602802774  0.6102383358069134  0.8547230120816419  1.0000
  C   C39       1.0  0.6321822217963312  0.2638771788371846  0.16116051398005496  1.0000
  C   C40       1.0  0.3678177783459335  0.7361228204774144  0.8388394862539575  1.0000
  C   C41       1.0  0.6494791427004873  0.9168333681715107  0.03227678361632475  1.0000
  C   C42       1.0  0.3505208573515468  0.08316663207210612  0.9677232161956333  1.0000
  C   C43       1.0  0.6890318951593087  0.8547775106333151  0.982460938280896  1.0000
  C   C44       1.0  0.3109681050639063  0.14522248869547796  0.017539061534549354  1.0000
  C   C45       1.0  0.7322585889997424  0.4848031162124023  0.1742802963576166  1.0000
  C   C46       1.0  0.26774141097134135  0.5151968840170205  0.8257197038729088  1.0000
  C   C47       1.0  0.7796234889911164  0.7504162951360407  0.08367751468211873  1.0000
  C   C48       1.0  0.22037651097996738  0.24958370509338207  0.9163224855484066  1.0000
  C   C49       1.0  0.6918807221191668  0.8642901034657998  0.08367011953564135  1.0000
  C   C50       1.0  0.30811927785191706  0.13570989676362302  0.916329880694884  1.0000
  C   C51       1.0  0.5761409191983597  0.14628955720740658  0.15482987404001644  1.0000
  C   C52       1.0  0.4238590809439049  0.8537104421071925  0.8451701261939961  1.0000
  C   C53       1.0  0.5443200298600553  0.3604124617192658  0.18850227225406885  1.0000
  C   C54       1.0  0.45567997036315955  0.6395875376095272  0.8114977275613765  1.0000
  C   C55       1.0  0.5961768562008777  0.46962026698722287  0.19475139983506665  1.0000
  C   C56       1.0  0.40382314377020634  0.5303797332421998  0.8052486003954585  1.0000
  C   C57       1.0  0.8194010690291669  0.6882731421904733  0.03395603962316328  1.0000
  C   C58       1.0  0.18059893102286714  0.3117268580531436  0.9660439601887948  1.0000
  C   C59       1.0  0.9616853612716608  0.4125628865567546  0.12151129858858034  1.0000
  C   C60       1.0  0.03831463878037334  0.5874371136868622  0.8784887012233776  1.0000
  C   C61       1.0  0.1859960326857682  0.3298485373468494  0.07068952745311828  1.0000
  C   C62       1.0  0.8140039672853157  0.6701514628825734  0.9293104727774072  1.0000
  C   C63       1.0  0.638716708887286  0.9250982906696923  0.1383314329952736  1.0000
  C   C64       1.0  0.3612832911647481  0.07490170957392454  0.8616685668166844  1.0000
  C   C65       1.0  0.035623656728591656  0.9431927040819938  0.015135303129354925  1.0000
  C   C66       1.0  0.964376343242492  0.056807296147428965  0.9848646971011705  1.0000
  C   C67       1.0  0.04711337220515592  0.9647414836089764  0.07674004045752998  1.0000
  C   C68       1.0  0.9528866277659278  0.03525851662044639  0.9232599597729954  1.0000
  C   C69       1.0  0.18915591030170048  0.7573860190091305  0.08469762704498407  1.0000
  C   C70       1.0  0.8108440897503335  0.2426139812344863  0.9153023727669739  1.0000
  C   C71       1.0  0.02334576817768315  0.8562158617318442  0.20471072549384847  1.0000
  C   C72       1.0  0.9766542318743511  0.14378413851177257  0.7952892743181097  1.0000
  C   C73       1.0  0.13902955736857456  0.8928688501414085  0.16636185550940957  1.0000
  C   C74       1.0  0.8609704426025092  0.10713115008801426  0.8336381447211157  1.0000
  C   C75       1.0  0.982750062398945  0.7468608514839626  0.22180078963730399  1.0000
  C   C76       1.0  0.017249937824269822  0.25313914784483044  0.7781992101781414  1.0000
  C   C77       1.0  0.8561762732140872  0.775606290707523  0.2575188613198051  1.0000
  C   C78       1.0  0.14382372571492466  0.22439370951933188  0.7424811389065494  1.0000
  C   C79       1.0  0.8283095551387454  0.9002138948251655  0.2604619892825824  1.0000
  C   C80       1.0  0.17169044491328875  0.0997861054184514  0.7395380105293757  1.0000
  C   C81       1.0  0.3485669065656569  0.7539045206758254  0.07320541522228356  1.0000
  C   C82       1.0  0.651433093576608  0.24609547863877368  0.9267945850117291  1.0000
  C   C83       1.0  0.4156751115784721  0.6417481986835343  0.04012973949592398  1.0000
  C   C84       1.0  0.584324888473562  0.35825180156008246  0.9598702603160341  1.0000
  C   C85       1.0  0.3740457765280379  0.6511863616854217  0.9796402784494034  1.0000
  C   C86       1.0  0.625954223443046  0.3488136385440011  0.02035972178112186  1.0000
  C   C87       1.0  0.592750911191908  0.4065153504515364  0.559947460990533  1.0000
  C   C88       1.0  0.4072490888601261  0.5934846497920804  0.44005253882142503  1.0000
  C   C89       1.0  0.5585478859601729  0.44501844451993683  0.5006777796299565  1.0000
  C   C90       1.0  0.4414521140918612  0.55498155572368  0.4993222201820015  1.0000
  C   C91       1.0  0.6818187050554477  0.19340155660102096  0.6522229865521335  1.0000
  C   C92       1.0  0.3181812949965864  0.8065984436425958  0.3477770132598247  1.0000
  C   C93       1.0  0.7450898701606451  0.297821133632297  0.6263837565943213  1.0000
  C   C94       1.0  0.2549101298104387  0.7021788665971258  0.373616243636204  1.0000
  C   C95       1.0  0.610067420350933  0.04511941359083188  0.7085743648853406  1.0000
  C   C96       1.0  0.3899325797011011  0.9548805866527851  0.2914256349266173  1.0000
  C   C97       1.0  0.7195630803919405  0.11863110961412333  0.6973275398390963  1.0000
  C   C98       1.0  0.28043691957914335  0.8813688906152994  0.3026724603914289  1.0000
  C   C99       1.0  0.5146896288528444  0.07842614845198999  0.6690738174041567  1.0000
  C   C100      1.0  0.4853103712894201  0.9215738508626091  0.33092618282985586  1.0000
  C   C101      1.0  0.8082929960132205  0.1776756978714216  0.4915432248627206  1.0000
  C   C102      1.0  0.19170700412904418  0.8223243014431774  0.508456775371292  1.0000
  C   C103      1.0  0.8240573952589393  0.29104011606180397  0.5236907899917311  1.0000
  C   C104      1.0  0.17594260471214465  0.7089598841676189  0.47630921023879425  1.0000
  C   C105      1.0  0.9283409518943231  0.1528258766723987  0.44578690031811224  1.0000
  C   C106      1.0  0.0716590480767606  0.8471741235570242  0.5542130999124131  1.0000
  C   C107      1.0  0.9226312457809311  0.039485852554299726  0.412165129503959  1.0000
  C   C108      1.0  0.07736875419015256  0.9605141476751231  0.5878348707265663  1.0000
  N   N1        1.0  0.49685914548124377  0.6859633552290594  0.6641534098556363  1.0000
  N   N2        1.0  0.5031408545707902  0.3140366450145575  0.33584658995632183  1.0000
  N   N3        1.0  0.2313834747583372  0.35621253986880486  0.614772101520014  1.0000
  N   N4        1.0  0.7686165252127468  0.643787460360618  0.3852278987105113  1.0000
  N   N5        1.0  0.0406795137947198  0.32164287420190907  0.0911330950316149  1.0000
  N   N6        1.0  0.959320486176364  0.6783571260275137  0.9088669051989103  1.0000
  N   N7        1.0  0.6746170443116158  0.04695461414005891  0.142731967121765  1.0000
  N   N8        1.0  0.3253829557404182  0.953045386103558  0.857268032690193  1.0000
  N   N9        1.0  0.12030803164063911  0.8743201437768624  0.1071122427101566  1.0000
  N   N10       1.0  0.879691968411395  0.1256798564667545  0.8928877571018013  1.0000
  N   N11       1.0  0.7145227828300404  0.32952518416956544  0.5682244169144948  1.0000
  N   N12       1.0  0.28547721722199365  0.6704748160740515  0.43177558289746326  1.0000
  O   O1        1.0  0.9919419394943806  0.4118314132958267  0.6138173510747836  1.0000
  O   O2        1.0  0.008058060557653549  0.5881685869477902  0.3861826487371744  1.0000
  O   O3        1.0  0.3755353756429471  0.8627473183573621  0.701415780889703  1.0000
  O   O4        1.0  0.6244646243281368  0.13725268187206072  0.2985842193408222  1.0000
  O   O5        1.0  0.0021270051033992214  0.5121450648320715  0.12855945858044138  1.0000
  O   O6        1.0  0.9978729948676847  0.4878549353973514  0.871440541650084  1.0000
  O   O7        1.0  0.44635885692852206  0.14152989126207605  0.15988808271590935  1.0000
  O   O8        1.0  0.553641143042562  0.8584701089673469  0.840111917514616  1.0000
  O   O9        1.0  0.9895406074621141  0.06278307140142447  0.09926590597457105  1.0000
  O   O10       1.0  0.010459392680150528  0.9372169279131745  0.9007340942594415  1.0000
  O   O11       1.0  0.9290290704499585  0.9509608336036363  0.22830225562116868  1.0000
  O   O12       1.0  0.0709709296020755  0.04903916663998065  0.7716977441907894  1.0000
  O   O13       1.0  0.5093239910333321  0.4440799078006948  0.6007865303253845  1.0000
  O   O14       1.0  0.4906760078956798  0.55592009242616  0.3992134699009701  1.0000
  O   O15       1.0  0.5561468966111216  0.16978870131761475  0.6343544124150358  1.0000
  O   O16       1.0  0.44385310344091256  0.8302112989260021  0.36564558739692227  1.0000
  I   I1        1.0  0.8285308601901165  0.7668806874393834  0.7772550392469305  1.0000
  I   I2        1.0  0.1714691397809674  0.2331193127900394  0.2227449609835948  1.0000
  I   I3        1.0  0.4677702560157781  0.6176403839882257  0.23596452492191503  1.0000
  I   I4        1.0  0.5322297439553058  0.3823596162411971  0.7640354753086104  1.0000
