data_image0
_chemical_formula_structural       H72C56N4O12S2
_chemical_formula_sum              "H72 C56 N4 O12 S2"
_cell_length_a       12.284321781091307
_cell_length_b       6.055374408043894
_cell_length_c       17.562404875733595
_cell_angle_alpha    90.0
_cell_angle_beta     96.45890906902642
_cell_angle_gamma    90.0

_space_group_name_H-M_alt    "P 1"
_space_group_IT_number       1

loop_
  _space_group_symop_operation_xyz
  'x, y, z'

loop_
  _atom_site_type_symbol
  _atom_site_label
  _atom_site_symmetry_multiplicity
  _atom_site_fract_x
  _atom_site_fract_y
  _atom_site_fract_z
  _atom_site_occupancy
  H   H1        1.0  0.13468750136292307  0.529819655038702  0.7551061392072012  1.0000
  H   H2        1.0  0.8653124987954284  0.029819655702896564  0.2448938607081594  1.0000
  H   H3        1.0  0.1552921398177473  0.08298390093476074  0.686602419001122  1.0000
  H   H4        1.0  0.8447078603406042  0.5829839002705661  0.31339758091423875  1.0000
  H   H5        1.0  0.14611372183234936  0.30111996337960917  0.8808133441822817  1.0000
  H   H6        1.0  0.8538862783260021  0.8011199627154145  0.11918665573307897  1.0000
  H   H7        1.0  0.20009619629875217  0.12272837646715717  0.0057633343241810684  1.0000
  H   H8        1.0  0.7999038038595992  0.6227283758029626  0.9942366655911794  1.0000
  H   H9        1.0  0.02302450592483831  0.536931898988934  0.9271153419277663  1.0000
  H   H10       1.0  0.976975494233513  0.03693189965312858  0.07288465798759418  1.0000
  H   H11       1.0  0.9674764536771326  0.7150947502515871  0.8020177068981376  1.0000
  H   H12       1.0  0.03252354566199078  0.21509475091578165  0.19798229294902162  1.0000
  H   H13       1.0  0.11561082547829261  0.5397800135459943  0.053082320877682956  1.0000
  H   H14       1.0  0.884389174680059  0.0397800125587633  0.9469176790376778  1.0000
  H   H15       1.0  0.12308719774077032  0.8027546890482489  0.0987162664345019  1.0000
  H   H16       1.0  0.8769128024175811  0.3027546880610179  0.9012837334808588  1.0000
  H   H17       1.0  0.23929211573230352  0.6921312172592615  0.0622073593981218  1.0000
  H   H18       1.0  0.7607078844260481  0.19213121792345603  0.9377926405172388  1.0000
  H   H19       1.0  0.31926909525449615  0.3136199699687065  0.6780314205595834  1.0000
  H   H20       1.0  0.6807309048984718  0.8136199709559375  0.3219685799247395  1.0000
  H   H21       1.0  0.3184473572526599  0.5953922477874742  0.7047049002563388  1.0000
  H   H22       1.0  0.6815526429056916  0.09539224845166881  0.2952950996590218  1.0000
  H   H23       1.0  0.28796237853044127  0.6843205226906199  0.8459440748304662  1.0000
  H   H24       1.0  0.7120376216279102  0.18432052170338883  0.15405592508489452  1.0000
  H   H25       1.0  0.3569188364213233  0.5902861242158373  0.980096530822231  1.0000
  H   H26       1.0  0.6430811637370281  0.09028612322860632  0.019903469093129594  1.0000
  H   H27       1.0  0.44249685938331235  0.2230765463825979  0.010579796054709918  1.0000
  H   H28       1.0  0.5575031407750392  0.7230765457184034  0.9894202038606507  1.0000
  H   H29       1.0  0.45677847868946836  0.950551659093757  0.9062817654543266  1.0000
  H   H30       1.0  0.5432215214688831  0.4505516597579516  0.0937182344610341  1.0000
  H   H31       1.0  0.38742433414956057  0.04590088758686468  0.7715485593140657  1.0000
  H   H32       1.0  0.612575665189563  0.5459008869226701  0.2284514405330935  1.0000
  H   H33       1.0  0.17631299474635298  0.22586036764022438  0.43505530458191954  1.0000
  H   H34       1.0  0.8236870054119986  0.7258603669760297  0.5649446953334412  1.0000
  H   H35       1.0  0.027916509713995178  0.039491516772659746  0.4857134016007275  1.0000
  H   H36       1.0  0.9720834904443563  0.5394915161084652  0.5142865983146332  1.0000
  H   H37       1.0  0.09547479827544468  0.21420983949017566  0.5503299310279878  1.0000
  H   H38       1.0  0.9045252018829067  0.7142098388259811  0.4496700688873729  1.0000
  H   H39       1.0  0.11472955971904725  0.935921402724751  0.5617727183480842  1.0000
  H   H40       1.0  0.8852704396200763  0.4359214017375201  0.4382272814990751  1.0000
  H   H41       1.0  0.30838987187488826  0.7935939755626695  0.5722636055636992  1.0000
  H   H42       1.0  0.6916101274642352  0.29359397622686406  0.42773639428346016  1.0000
  H   H43       1.0  0.4881017044738584  0.8523891773138704  0.6487439949400193  1.0000
  H   H44       1.0  0.5118982956844932  0.3523891763266395  0.3512560049753414  1.0000
  H   H45       1.0  0.5844939285381929  0.2130591294711975  0.6409363981933938  1.0000
  H   H46       1.0  0.4155060716201586  0.713059128807003  0.3590636017219669  1.0000
  H   H47       1.0  0.5009315861785092  0.5108966682374589  0.5567496697657445  1.0000
  H   H48       1.0  0.4990684139744587  0.01089666890165344  0.4432503307185784  1.0000
  H   H49       1.0  0.3212280790622542  0.4496134667384657  0.47965566850323327  1.0000
  H   H50       1.0  0.6787719202768692  0.9496134677256968  0.5203443313439259  1.0000
  H   H51       1.0  0.20329783179891164  0.7240329490074067  0.4561423575777128  1.0000
  H   H52       1.0  0.7967021675402118  0.22403294967160128  0.5438576422694464  1.0000
  H   H53       1.0  0.2621212429783737  0.8849151462677249  0.38585652332194165  1.0000
  H   H54       1.0  0.7378787563607498  0.3849151469319194  0.6141434765252176  1.0000
  H   H55       1.0  0.11776267505065774  0.8632115155516095  0.38329188808422127  1.0000
  H   H56       1.0  0.8822373251076938  0.3632115162158041  0.6167081118311394  1.0000
  H   H57       1.0  0.7043872711945661  0.364292717733468  0.7759366836681697  1.0000
  H   H58       1.0  0.29561272896378543  0.8642927170692734  0.2240633162471909  1.0000
  H   H59       1.0  0.5573990491874018  0.36204794489465836  0.7568692400780249  1.0000
  H   H60       1.0  0.44260095097094965  0.8620479458818893  0.2431307598373358  1.0000
  H   H61       1.0  0.5442454769588877  0.6871059739052622  0.8391134546505968  1.0000
  H   H62       1.0  0.45575452319946375  0.18710597456945674  0.16088654526476387  1.0000
  H   H63       1.0  0.6230098791674182  0.47970928373004806  0.8928693487692688  1.0000
  H   H64       1.0  0.3769901209909333  0.979709284717279  0.10713065114609185  1.0000
  H   H65       1.0  0.6427343399468644  0.993361504122603  0.7908635834500345  1.0000
  H   H66       1.0  0.3572656602114872  0.49336150478679774  0.20913641646532627  1.0000
  H   H67       1.0  0.789353270236997  0.9929607609420037  0.8100543576809125  1.0000
  H   H68       1.0  0.2106467291021266  0.49296075995477273  0.1899456421662468  1.0000
  H   H69       1.0  0.7220584085495333  0.8775154898665487  0.6737574361977409  1.0000
  H   H70       1.0  0.2779415916088182  0.37751549053074335  0.3262425637176198  1.0000
  H   H71       1.0  0.801343281490171  0.6684780588666547  0.725928482154058  1.0000
  H   H72       1.0  0.1986567186627969  0.16847805953084924  0.27407151833026483  1.0000
  C   C1        1.0  0.16330305221338354  0.4378560649326543  0.7072978903786549  1.0000
  C   C2        1.0  0.8366969479395845  0.9378560642684597  0.29270211010566793  1.0000
  C   C3        1.0  0.05253816019719969  0.01900751832076734  0.833940350693905  1.0000
  C   C4        1.0  0.9474618399557683  0.5190075176565727  0.16605964979041782  1.0000
  C   C5        1.0  0.11878593089766677  0.13374592476464578  0.8909042704941178  1.0000
  C   C6        1.0  0.8812140692606847  0.6337459241004512  0.1090957294212428  1.0000
  C   C7        1.0  0.14972819374770863  0.03220284937971196  0.9610343981705916  1.0000
  C   C8        1.0  0.8502718064106428  0.5322028487155174  0.03896560174476921  1.0000
  C   C9        1.0  0.11604160029170399  0.8155397663668632  0.9753606686315296  1.0000
  C   C10       1.0  0.8839583998666475  0.31553976703105785  0.02463933128383095  1.0000
  C   C11       1.0  0.050330234880579146  0.7044793488464136  0.9172198961531396  1.0000
  C   C12       1.0  0.9496697652777722  0.20447934785918273  0.08278010376222115  1.0000
  C   C13       1.0  0.0182488603621846  0.8040734596909679  0.8465848847022794  1.0000
  C   C14       1.0  0.9817511389769389  0.3040734603551624  0.1534151151448799  1.0000
  C   C15       1.0  0.14973020182551625  0.7065447108136913  0.05107182967568221  1.0000
  C   C16       1.0  0.8502697983328351  0.2065447114778859  0.9489281702396786  1.0000
  C   C17       1.0  0.1275111318639008  0.5770133379958415  0.6351546767573907  1.0000
  C   C18       1.0  0.8724888682890671  0.07701333700861054  0.3648453237269322  1.0000
  C   C19       1.0  0.28963022199364563  0.43014520068981327  0.7190232665452067  1.0000
  C   C20       1.0  0.7103697781647057  0.9301452000256187  0.28097673337015394  1.0000
  C   C21       1.0  0.33392755631711063  0.37147791836155847  0.7996796591178852  1.0000
  C   C22       1.0  0.6660724438412409  0.8714779193487895  0.20032034079747552  1.0000
  C   C23       1.0  0.32592886987020414  0.5237079470738174  0.8590568701721236  1.0000
  C   C24       1.0  0.6740711302881474  0.023707947738012002  0.14094312974323717  1.0000
  C   C25       1.0  0.36471872913302744  0.47118126440040903  0.9345129297666981  1.0000
  C   C26       1.0  0.635281271025324  0.9711812637362144  0.06548707014866251  1.0000
  C   C27       1.0  0.4126431467802608  0.26519648196596857  0.9516796787293246  1.0000
  C   C28       1.0  0.5873568533780906  0.7651964829531995  0.048320321186036054  1.0000
  C   C29       1.0  0.4208446606114334  0.11249160565449587  0.8930764418547433  1.0000
  C   C30       1.0  0.5791553395469181  0.6124916049903013  0.10692355806061728  1.0000
  C   C31       1.0  0.3814029333426262  0.16517543963447517  0.8175488810735317  1.0000
  C   C32       1.0  0.6185970668157252  0.6651754389702806  0.18245111884182902  1.0000
  C   C33       1.0  0.1944515486255788  0.08007808722047978  0.4716933178580507  1.0000
  C   C34       1.0  0.8055484515273891  0.5800780865562851  0.5283066826262722  1.0000
  C   C35       1.0  0.30206952221375044  0.11816465701105056  0.520969543951457  1.0000
  C   C36       1.0  0.697930477944601  0.6181646579982816  0.47903045596390365  1.0000
  C   C37       1.0  0.3499091555682873  0.9514333783137787  0.5690829536704636  1.0000
  C   C38       1.0  0.6500908445846808  0.45143337732654776  0.43091704681385923  1.0000
  C   C39       1.0  0.45066564348249993  0.9849385072006877  0.6126179498718708  1.0000
  C   C40       1.0  0.5493343566758515  0.4849385078648822  0.3873820500434898  1.0000
  C   C41       1.0  0.5050836597552021  0.18643532735157284  0.6080210902031805  1.0000
  C   C42       1.0  0.4949163404031494  0.6864353266873783  0.39197890971218013  1.0000
  C   C43       1.0  0.4584057483016219  0.3540760001812357  0.5605085091907013  1.0000
  C   C44       1.0  0.541594251032118  0.8540759995170412  0.43949149122542025  1.0000
  C   C45       1.0  0.3572326746825066  0.31936884652929654  0.5173501619975821  1.0000
  C   C46       1.0  0.6427673254758449  0.819368845865102  0.48264983791777855  1.0000
  C   C47       1.0  0.19441343442101897  0.8751339294496002  0.42137574224424307  1.0000
  C   C48       1.0  0.8055865657373326  0.3751339301137948  0.5786242576711176  1.0000
  C   C49       1.0  0.6296703326449075  0.46728066496453863  0.7702408130618829  1.0000
  C   C50       1.0  0.3703296675134441  0.967280664300344  0.2297591868534777  1.0000
  C   C51       1.0  0.6219674078899093  0.5931516679181309  0.8440033965068021  1.0000
  C   C52       1.0  0.37803259226844227  0.0931516669308999  0.15599660340855842  1.0000
  C   C53       1.0  0.7169552235597251  0.8884726438803223  0.7964799553292548  1.0000
  C   C54       1.0  0.2830447765986264  0.38847264454451685  0.20352004458610579  1.0000
  C   C55       1.0  0.7243036985916687  0.7632528161859777  0.7224151018368095  1.0000
  C   C56       1.0  0.2756963015666828  0.2632528168501724  0.2775848980785512  1.0000
  N   N1        1.0  0.11601930922867894  0.2172957048291013  0.706180381724504  1.0000
  N   N2        1.0  0.8839806909296726  0.7172957058163323  0.2938196181908566  1.0000
  N   N3        1.0  0.10212553816459975  0.0643032707412363  0.520635244645627  1.0000
  N   N4        1.0  0.8978744619937518  0.5643032700770417  0.4793647552697336  1.0000
  O   O1        1.0  0.9446064991026318  0.9915209325494904  0.6979829866013537  1.0000
  O   O2        1.0  0.05539350023649178  0.49152093156225946  0.3020170132458055  1.0000
  O   O3        1.0  0.9552047273326467  0.3583923344388301  0.7635896827849576  1.0000
  O   O4        1.0  0.044795272820321225  0.8583923337746355  0.23641031769936524  1.0000
  O   O5        1.0  0.1459990585587643  0.7817655178698053  0.6415798764267416  1.0000
  O   O6        1.0  0.8540009415995871  0.2817655168825743  0.358420123488619  1.0000
  O   O7        1.0  0.08628345296488191  0.48116650989070925  0.5740718468079453  1.0000
  O   O8        1.0  0.913716546368858  0.9811665092265147  0.42592815360817604  1.0000
  O   O9        1.0  0.6325239403335219  0.6161250863437866  0.7069775583422153  1.0000
  O   O10       1.0  0.3674760598248296  0.11612508535655568  0.29302244157314533  1.0000
  O   O11       1.0  0.7127850569020905  0.7404732982396119  0.8599203029914269  1.0000
  O   O12       1.0  0.287214943256261  0.24047329890380656  0.14007969692393374  1.0000
  S   S1        1.0  0.006776927401733842  0.1516806737465972  0.7459235653197073  1.0000
  S   S2        1.0  0.9932230727566175  0.6516806730824026  0.25407643459565327  1.0000
