data_image0
_chemical_formula_structural       H36C48N4O8Cl8I4
_chemical_formula_sum              "H36 C48 N4 O8 Cl8 I4"
_cell_length_a       3.9583396820025074
_cell_length_b       9.139708567843448
_cell_length_c       37.297073503575476
_cell_angle_alpha    87.09676178481014
_cell_angle_beta     89.5242728523343
_cell_angle_gamma    79.39700988660809

_space_group_name_H-M_alt    "P 1"
_space_group_IT_number       1

loop_
  _space_group_symop_operation_xyz
  'x, y, z'

loop_
  _atom_site_type_symbol
  _atom_site_label
  _atom_site_symmetry_multiplicity
  _atom_site_fract_x
  _atom_site_fract_y
  _atom_site_fract_z
  _atom_site_occupancy
  H   H1        1.0  0.7301502861064891  0.720750078116835  0.34049012007424345  1.0000
  H   H2        1.0  0.2698497143921438  0.27924992174605506  0.6595098799042415  1.0000
  H   H3        1.0  0.33828016831325886  0.470692528688282  0.42075653997184  1.0000
  H   H4        1.0  0.6617198321853742  0.529307471174608  0.579243460006645  1.0000
  H   H5        1.0  0.23246960489795782  0.2836103747891072  0.37751371122366933  1.0000
  H   H6        1.0  0.7675303956006753  0.7163896250737827  0.6224862887548156  1.0000
  H   H7        1.0  0.3875754627907272  0.31767982494789826  0.3132478761280607  1.0000
  H   H8        1.0  0.6124245377079061  0.6823201749149916  0.6867521238504243  1.0000
  H   H9        1.0  0.7699097756469022  0.6603951939889497  0.2798671436375239  1.0000
  H   H10       1.0  0.23009022232193396  0.3396048058828289  0.7201328563390209  1.0000
  H   H11       1.0  0.596128518819304  0.3604268356204072  0.25874787303922686  1.0000
  H   H12       1.0  0.40387148167932924  0.6395731642424827  0.741252126939258  1.0000
  H   H13       1.0  0.6559163108751548  0.44399365493469484  0.14186352181017398  1.0000
  H   H14       1.0  0.3440836896234782  0.5560063449281952  0.8581364781683108  1.0000
  H   H15       1.0  0.09695785312639153  0.38061395108142565  0.15313186667925477  1.0000
  H   H16       1.0  0.9030421469186569  0.6193860498947745  0.8468681332981768  1.0000
  H   H17       1.0  0.906160842218563  0.5730726278497871  0.15781990337963334  1.0000
  H   H18       1.0  0.09383915828007014  0.4269273720131028  0.8421800965988515  1.0000
  H   H19       1.0  0.5599104622977309  0.1907860889726092  0.1638358536266924  1.0000
  H   H20       1.0  0.440089537729916  0.8092139119523217  0.8361641466191923  1.0000
  H   H21       1.0  0.3921350596063605  0.9397706427220466  0.07860569372892602  1.0000
  H   H22       1.0  0.6078649383624758  0.06022935714973171  0.9213943062476188  1.0000
  H   H23       1.0  0.17614736406394726  0.7528056413683605  0.11934198563315371  1.0000
  H   H24       1.0  0.8238526364346859  0.2471943584945294  0.8806580143453313  1.0000
  H   H25       1.0  0.13977585900222808  0.79079326068581  0.1852252630465816  1.0000
  H   H26       1.0  0.8602241414790032  0.20920673912581092  0.8147747372003565  1.0000
  H   H27       1.0  0.4192715368592973  0.135408083425346  0.22363660397753146  1.0000
  H   H28       1.0  0.5807284636393357  0.8645919164375441  0.7763633960009535  1.0000
  H   H29       1.0  0.11405692627731952  0.8536196093088594  0.2424551264387215  1.0000
  H   H30       1.0  0.8859430737677292  0.14638039166734063  0.75754487353871  1.0000
  H   H31       1.0  0.3195943234037943  0.96733546858633  0.3539752669214895  1.0000
  H   H32       1.0  0.6804056770948389  0.032664531276559994  0.6460247330569954  1.0000
  H   H33       1.0  0.9115972799706775  0.912047618881111  0.35811822519069064  1.0000
  H   H34       1.0  0.08840272052795561  0.08795238098177897  0.6418817747877943  1.0000
  H   H35       1.0  0.938139945955761  0.09850595785708045  0.3417435085425805  1.0000
  H   H36       1.0  0.06186005454287206  0.9014940420058096  0.6582564914359045  1.0000
  C   C1        1.0  0.8873391861549554  0.9100206910739046  0.47417795750150976  1.0000
  C   C2        1.0  0.11266081432627591  0.08997930873771635  0.5258220427454283  1.0000
  C   C3        1.0  0.9956761248941048  0.8490922093641687  0.5084151623314552  1.0000
  C   C4        1.0  0.004323875587126539  0.15090779044745212  0.49158483791548296  1.0000
  C   C5        1.0  0.10530880709514008  0.9388746768158822  0.5339097214357885  1.0000
  C   C6        1.0  0.8946911929499087  0.061125324160317636  0.466090278541643  1.0000
  C   C7        1.0  0.6175613908486636  0.622865701616634  0.3477977369233908  1.0000
  C   C8        1.0  0.3824386096499695  0.3771342982462559  0.6522022630550941  1.0000
  C   C9        1.0  0.40158238109738503  0.4832705891793566  0.39238702134437214  1.0000
  C   C10       1.0  0.5984176164004649  0.516729411754463  0.6076129788995722  1.0000
  C   C11       1.0  0.3455429861525078  0.37865155774059867  0.36812241648822835  1.0000
  C   C12       1.0  0.6544570143461254  0.6213484421222912  0.6318775834902566  1.0000
  C   C13       1.0  0.4322981301496582  0.3984261643700935  0.332298780649431  1.0000
  C   C14       1.0  0.5677018703315729  0.6015738354415275  0.6677012195975071  1.0000
  C   C15       1.0  0.5735501088359062  0.5238496171789163  0.3213207689699781  1.0000
  C   C16       1.0  0.4264498891329299  0.4761503826928622  0.6786792310065667  1.0000
  C   C17       1.0  0.6792331216330137  0.5551295575712992  0.28483003869408835  1.0000
  C   C18       1.0  0.32076687886561916  0.4448704422915908  0.7151699612843966  1.0000
  C   C19       1.0  0.6789668491008239  0.4678170500440256  0.2567304360943284  1.0000
  C   C20       1.0  0.3210331488680121  0.5321829498277529  0.7432695638822164  1.0000
  C   C21       1.0  0.7935181537964326  0.5189001438898604  0.2216045713254681  1.0000
  C   C22       1.0  0.20648184670220054  0.4810998559730297  0.7783954286530168  1.0000
  C   C23       1.0  0.8624510553301084  0.4581731733344966  0.15998096036383694  1.0000
  C   C24       1.0  0.13754894471494022  0.5418268276417034  0.8400190396135946  1.0000
  C   C25       1.0  0.8804931915726403  0.4025859484452387  0.0261556984716103  1.0000
  C   C26       1.0  0.11950680892599269  0.5974140514176512  0.9738443015068745  1.0000
  C   C27       1.0  0.8853562694676517  0.5516463780388569  0.03322752766997214  1.0000
  C   C28       1.0  0.11464373103098145  0.44835362182403304  0.9667724723085129  1.0000
  C   C29       1.0  0.0023642102874110943  0.6486484105930195  0.007451097130247277  1.0000
  C   C30       1.0  0.9976357897576377  0.3513515903831806  0.9925489028471842  1.0000
  C   C31       1.0  0.4686850409950429  0.09299962254967759  0.1547541203280512  1.0000
  C   C32       1.0  0.5313149594861886  0.9070003772619433  0.845245879918887  1.0000
  C   C33       1.0  0.37929081233880535  0.9526253801616499  0.10754205381507585  1.0000
  C   C34       1.0  0.6207091881598275  0.047374619701240114  0.892457946163409  1.0000
  C   C35       1.0  0.25868909117364125  0.848241618691952  0.13055348342751616  1.0000
  C   C36       1.0  0.7413109093249918  0.15175838117093784  0.8694465165509689  1.0000
  C   C37       1.0  0.2393534532847245  0.8698969983093179  0.16712093775646306  1.0000
  C   C38       1.0  0.7606465467603242  0.1301030026668821  0.8328790622209685  1.0000
  C   C39       1.0  0.3448258395424002  0.9963166357940527  0.18009944783125  1.0000
  C   C40       1.0  0.655174158426436  0.0036833640777257023  0.8199005521452947  1.0000
  C   C41       1.0  0.3288118606062899  0.03328886519621662  0.21753209713219446  1.0000
  C   C42       1.0  0.6711881398923432  0.9667111346666732  0.7824679028462905  1.0000
  C   C43       1.0  0.21043077362335466  0.9567312040452398  0.24531121437275977  1.0000
  C   C44       1.0  0.7895692268752783  0.043268795817650196  0.7546887856057253  1.0000
  C   C45       1.0  0.20800261394645975  0.015288415433011798  0.28119858172844225  1.0000
  C   C46       1.0  0.7919973865521734  0.9847115844298782  0.7188014182500427  1.0000
  C   C47       1.0  0.06190702800465146  0.9808339761945624  0.34221322716796526  1.0000
  C   C48       1.0  0.9380929724939817  0.019166023668327706  0.6577867728105197  1.0000
  N   N1        1.0  0.5349806048016773  0.6037567928057627  0.3823127000361579  1.0000
  N   N2        1.0  0.46501939314975693  0.396243207014747  0.61768730020884  1.0000
  N   N3        1.0  0.484411855300961  0.07279876265565705  0.11950183135708366  1.0000
  N   N4        1.0  0.5155881426678751  0.9272012372161214  0.8804981686194612  1.0000
  O   O1        1.0  0.9036077525935291  0.6348398392565107  0.21527470400146997  1.0000
  O   O2        1.0  0.09639224537530686  0.3651601606152679  0.7847252959750748  1.0000
  O   O3        1.0  0.7622550398412027  0.4202811280773956  0.19609347685291592  1.0000
  O   O4        1.0  0.23774496065743034  0.5797188717854943  0.8039065231255691  1.0000
  O   O5        1.0  0.30693185308409715  0.13007108053526886  0.2886397245338194  1.0000
  O   O6        1.0  0.6930681474145359  0.8699289193276211  0.7113602754446655  1.0000
  O   O7        1.0  0.08012584218926967  0.9269882903826246  0.3063348988676458  1.0000
  O   O8        1.0  0.9198741583093634  0.07301170948026513  0.6936651011108391  1.0000
  Cl  Cl1       1.0  0.001554330547938703  0.663314118347343  0.5192767413241077  1.0000
  Cl  Cl2       1.0  0.9984456699506943  0.33668588151554707  0.4807232586543771  1.0000
  Cl  Cl3       1.0  0.23161006863540218  0.8599219473936742  0.5757059035931199  1.0000
  Cl  Cl4       1.0  0.7683899293334339  0.14007805247810437  0.4242940963834248  1.0000
  Cl  Cl5       1.0  0.7466198576184663  0.6189442305892552  0.0741899096946977  1.0000
  Cl  Cl6       1.0  0.25338014242658236  0.3810557703869449  0.9258100902827339  1.0000
  Cl  Cl7       1.0  0.9959431756838545  0.8310125063962237  0.01730328925130365  1.0000
  Cl  Cl8       1.0  0.0040568248147785264  0.16898749346666625  0.9826967107271811  1.0000
  I   I1        1.0  0.7233864355903009  0.777315989891351  0.43523315791137157  1.0000
  I   I2        1.0  0.276613564908332  0.222684009971539  0.5647668420671134  1.0000
  I   I3        1.0  0.7103834143655657  0.25943002443551755  0.06594477805531586  1.0000
  I   I4        1.0  0.28961658613306723  0.7405699754273725  0.934055221923169  1.0000
