data_image0
_chemical_formula_structural       H36C60N4O8Cl16I8
_chemical_formula_sum              "H36 C60 N4 O8 Cl16 I8"
_cell_length_a       4.007334440170332
_cell_length_b       28.065484542874138
_cell_length_c       16.725122207194545
_cell_angle_alpha    90.0
_cell_angle_beta     98.28506422323439
_cell_angle_gamma    90.0

_space_group_name_H-M_alt    "P 1"
_space_group_IT_number       1

loop_
  _space_group_symop_operation_xyz
  'x, y, z'

loop_
  _atom_site_type_symbol
  _atom_site_label
  _atom_site_symmetry_multiplicity
  _atom_site_fract_x
  _atom_site_fract_y
  _atom_site_fract_z
  _atom_site_occupancy
  H   H1        1.0  0.026830229184092436  0.593302539443517  0.37252117863013173  1.0000
  H   H2        1.0  0.026830228475842762  0.4066974604540747  0.8725211787868553  1.0000
  H   H3        1.0  0.5268302283539256  0.09330253949472113  0.37252117903993304  1.0000
  H   H4        1.0  0.5268302276456757  0.90669746075918  0.8725211791966565  1.0000
  H   H5        1.0  0.8841793702340066  0.6586370832743508  0.4607300703876377  1.0000
  H   H6        1.0  0.8841793695257569  0.3413629169795504  0.9607300705443612  1.0000
  H   H7        1.0  0.38417937139551717  0.15863708332555498  0.4607300705819956  1.0000
  H   H8        1.0  0.3841793706872674  0.8413629169283462  0.9607300707387192  1.0000
  H   H9        1.0  0.5232850621566694  0.5646275486814446  0.6191548758572512  1.0000
  H   H10       1.0  0.5232850628649193  0.43537245121614704  0.11915487570052777  1.0000
  H   H11       1.0  0.023285063318179818  0.0646275487326488  0.6191548760516091  1.0000
  H   H12       1.0  0.023285064026429575  0.9353724515212525  0.11915487589488567  1.0000
  H   H13       1.0  0.6581255164467918  0.49459276460360985  0.5384580697067319  1.0000
  H   H14       1.0  0.6581255174863849  0.5054072352939818  0.03845807015416758  1.0000
  H   H15       1.0  0.15812551760830215  0.9945927645524058  0.5384580699010898  1.0000
  H   H16       1.0  0.15812551581667225  0.005407235345185986  0.038458069736616966  1.0000
  H   H17       1.0  0.8900445721309979  0.46172193892480523  0.4230142306394686  1.0000
  H   H18       1.0  0.8900445739226278  0.5382780609727864  0.9230142308039414  1.0000
  H   H19       1.0  0.39004457329250825  0.9617219388736011  0.4230142308338265  1.0000
  H   H20       1.0  0.3900445722529152  0.038278061023990555  0.9230142303863909  1.0000
  H   H21       1.0  0.055649930853527166  0.535702238350178  0.2974706070042792  1.0000
  H   H22       1.0  0.05564992981393402  0.4642977615474136  0.7974706065568434  1.0000
  H   H23       1.0  0.5556499296920169  0.03570223840138221  0.2974706068099213  1.0000
  H   H24       1.0  0.5556499314836466  0.964297761852519  0.7974706069743941  1.0000
  H   H25       1.0  0.015224577986252288  0.37963203178350985  0.19715785687485232  1.0000
  H   H26       1.0  0.015224579777882177  0.6203679684703913  0.6971578570393251  1.0000
  H   H27       1.0  0.515224579655965  0.8796320317323058  0.19715785729240293  1.0000
  H   H28       1.0  0.5152245786163718  0.12036796852159551  0.6971578568449672  1.0000
  H   H29       1.0  0.009434682122200146  0.34649035491065633  0.2892109774779992  1.0000
  H   H30       1.0  0.009434683913830103  0.6535096449869354  0.7892109776424721  1.0000
  H   H31       1.0  0.5094346837919128  0.8464903548594521  0.2892109778955498  1.0000
  H   H32       1.0  0.5094346827523196  0.1535096450381395  0.789210977448114  1.0000
  H   H33       1.0  0.39481625909370033  0.3726590835808504  0.26693327086717167  1.0000
  H   H34       1.0  0.39481626088533023  0.6273409166730508  0.7669332710316445  1.0000
  H   H35       1.0  0.8948162607634129  0.8726590835296463  0.2669332712847222  1.0000
  H   H36       1.0  0.8948162597238198  0.1273409163679454  0.7669332708372866  1.0000
  C   C1        1.0  0.26407510249216937  0.7707823827859935  0.6079018976499213  1.0000
  C   C2        1.0  0.26407510353176245  0.22921761746790764  0.107901898097357  1.0000
  C   C3        1.0  0.7640751016620023  0.2707823828371977  0.6079018980597226  1.0000
  C   C4        1.0  0.764075102370252  0.7292176174167035  0.10790189790299907  1.0000
  C   C5        1.0  0.1914046797077897  0.8023782844582183  0.5424453243632955  1.0000
  C   C6        1.0  0.19140467824750318  0.19762171543937318  0.04244532480298182  1.0000
  C   C7        1.0  0.6914046788776228  0.3023782845094226  0.5424453247730967  1.0000
  C   C8        1.0  0.6914046795858725  0.6976217157444785  0.04244532461637327  1.0000
  C   C9        1.0  0.05436204667626587  0.8477887194020038  0.5532188492160625  1.0000
  C   C10       1.0  0.05436204771585895  0.1522112808518974  0.05321884966349808  1.0000
  C   C11       1.0  0.5543620458460988  0.34778871909689846  0.5532188496258637  1.0000
  C   C12       1.0  0.5543620465543485  0.6522112808006931  0.05321884946914016  1.0000
  C   C13       1.0  0.9860209685902039  0.8621292393166045  0.6298135857158612  1.0000
  C   C14       1.0  0.9860209692984538  0.13787076093729683  0.12981358555913777  1.0000
  C   C15       1.0  0.486020969420371  0.36212923936780855  0.62981358530606  1.0000
  C   C16       1.0  0.4860209701286207  0.6378707608860926  0.12981358514933655  1.0000
  C   C17       1.0  0.04980110121193301  0.8301143792621702  0.6948803984922647  1.0000
  C   C18       1.0  0.049801099751646476  0.16988562063542142  0.19488039893195092  1.0000
  C   C19       1.0  0.549801100381766  0.3301143793133744  0.6948803989020659  1.0000
  C   C20       1.0  0.5498011010900158  0.6698856209405267  0.19488039874534238  1.0000
  C   C21       1.0  0.19196607514612699  0.7850911309348639  0.6840725609392676  1.0000
  C   C22       1.0  0.19196607585437675  0.2149088693190373  0.18407256078254414  1.0000
  C   C23       1.0  0.6919660764844964  0.2850911306297585  0.6840725607526591  1.0000
  C   C24       1.0  0.6919660746928664  0.7149088692678331  0.18407256058818625  1.0000
  C   C25       1.0  0.9158171386710067  0.5848889330566658  0.4264862550974394  1.0000
  C   C26       1.0  0.9158171379627569  0.41511106719723545  0.9264862552541628  1.0000
  C   C27       1.0  0.41581713983251706  0.08488893310786992  0.4264862552917973  1.0000
  C   C28       1.0  0.4158171391242673  0.9151110671460313  0.9264862554485207  1.0000
  C   C29       1.0  0.8368643346696019  0.6216528723509893  0.47577932611652357  1.0000
  C   C30       1.0  0.8368643364612318  0.3783471279029119  0.9757793262809964  1.0000
  C   C31       1.0  0.33686433583111225  0.12165287204588389  0.47577932631088143  1.0000
  C   C32       1.0  0.33686433512286246  0.8783471278517078  0.9757793264676048  1.0000
  C   C33       1.0  0.638905908676507  0.5696272154353054  0.5645512723906598  1.0000
  C   C34       1.0  0.6389059068848769  0.43037278446228633  0.06455127222618698  1.0000
  C   C35       1.0  0.13890590733813768  0.06962721548650952  0.5645512725772684  1.0000
  C   C36       1.0  0.13890590804638742  0.9303727844110822  0.06455127242054491  1.0000
  C   C37       1.0  0.7125514617467357  0.5304610364826212  0.518847604979624  1.0000
  C   C38       1.0  0.7125514624549855  0.4695389634149705  0.018847604822900627  1.0000
  C   C39       1.0  0.21255146007702297  0.030461036533825356  0.5188476045620735  1.0000
  C   C40       1.0  0.21255146111661613  0.9695389633637663  0.018847605009509175  1.0000
  C   C41       1.0  0.8520061284628864  0.5376031939498755  0.447510049265213  1.0000
  C   C42       1.0  0.8520061299231728  0.4623968059477161  0.9475100488255267  1.0000
  C   C43       1.0  0.35200612929305325  0.037603194001079705  0.4475100488554118  1.0000
  C   C44       1.0  0.35200612858480357  0.9623968062528214  0.9475100490121352  1.0000
  C   C45       1.0  0.922600533225597  0.4970872389068435  0.398025729660741  1.0000
  C   C46       1.0  0.9226005321860039  0.5029127609907482  0.8980257292133054  1.0000
  C   C47       1.0  0.4226005340557641  0.9970872388556392  0.3980257292509398  1.0000
  C   C48       1.0  0.42260053334751435  0.0029127610419523624  0.8980257294076633  1.0000
  C   C49       1.0  0.02153364238148613  0.5010946569803916  0.3246058547458227  1.0000
  C   C50       1.0  0.021533644173115978  0.4989053429172  0.8246058549102955  1.0000
  C   C51       1.0  0.5215336437198554  0.0010946570315957852  0.3246058545592142  1.0000
  C   C52       1.0  0.5215336430116057  0.9989053428659959  0.8246058547159377  1.0000
  C   C53       1.0  0.09830610387392355  0.46099558054076034  0.27429783904760663  1.0000
  C   C54       1.0  0.09830610316567383  0.5390044193568313  0.7742978392043302  1.0000
  C   C55       1.0  0.5983061030437565  0.9609955804895561  0.2742978394574079  1.0000
  C   C56       1.0  0.5983061045040431  0.039004419408035486  0.7742978390177215  1.0000
  C   C57       1.0  0.1201612711959931  0.3766624297489296  0.26112905408642784  1.0000
  C   C58       1.0  0.12016127265627957  0.6233375701486621  0.7611290536467414  1.0000
  C   C59       1.0  0.6201612725343624  0.8766624296977255  0.2611290538998192  1.0000
  C   C60       1.0  0.6201612718261127  0.12333757019986623  0.7611290540565427  1.0000
  N   N1        1.0  0.700103428138133  0.61463145357951  0.5437255223649997  1.0000
  N   N2        1.0  0.7001034288463828  0.3853685463180817  0.04372552220827625  1.0000
  N   N3        1.0  0.20010342679976362  0.11463145363071409  0.5437255225516082  1.0000
  N   N4        1.0  0.20010342750801344  0.8853685462668777  0.0437255223948848  1.0000
  O   O1        1.0  0.20974516056702228  0.4661202727505201  0.20974809215696905  1.0000
  O   O2        1.0  0.2097451598587725  0.5338797271470715  0.7097480923136925  1.0000
  O   O3        1.0  0.7097451594055119  0.9661202726993159  0.2097480919626111  1.0000
  O   O4        1.0  0.7097451611971418  0.03387972719827573  0.709748092127084  1.0000
  O   O5        1.0  0.03679647462440807  0.41812711168671113  0.3056943449704474  1.0000
  O   O6        1.0  0.036796473916158284  0.5818728882108805  0.8056943451271709  1.0000
  O   O7        1.0  0.5367964734628976  0.918127111635507  0.3056943447760894  1.0000
  O   O8        1.0  0.5367964752545276  0.0818728882620847  0.8056943449405622  1.0000
  Cl  Cl1       1.0  0.27018861659327176  0.7859164471685678  0.447809868820874  1.0000
  Cl  Cl2       1.0  0.27018861588502197  0.21408355272902385  0.9478098689775974  1.0000
  Cl  Cl3       1.0  0.7701886157631048  0.285916447219772  0.4478098692306752  1.0000
  Cl  Cl4       1.0  0.7701886147235116  0.7140835526778198  0.9478098687832395  1.0000
  Cl  Cl5       1.0  0.9654597642678481  0.8851708322387616  0.47162163069475427  1.0000
  Cl  Cl6       1.0  0.9654597635595984  0.11482916801513968  0.9716216308514778  1.0000
  Cl  Cl7       1.0  0.46545976292947877  0.3851708322899657  0.4716216308813629  1.0000
  Cl  Cl8       1.0  0.46545976438976533  0.6148291679639355  0.9716216304416766  1.0000
  Cl  Cl9       1.0  0.9566550351934415  0.845318452412881  0.788717742562074  1.0000
  Cl  Cl10      1.0  0.9566550359016912  0.1546815478410202  0.2887177424053506  1.0000
  Cl  Cl11      1.0  0.45665503635495186  0.3453184521077756  0.788717742756432  1.0000
  Cl  Cl12      1.0  0.45665503706320154  0.6546815477898161  0.2887177425997085  1.0000
  Cl  Cl13      1.0  0.2799561120169047  0.7480466103454635  0.7662305509431099  1.0000
  Cl  Cl14      1.0  0.2799561127251544  0.25195338990843774  0.26623055078638636  1.0000
  Cl  Cl15      1.0  0.7799561133552739  0.2480466100403581  0.7662305507565013  1.0000
  Cl  Cl16      1.0  0.779956111563644  0.7519533898572335  0.2662305505920284  1.0000
  I   I1        1.0  0.46332665127629874  0.7022689392691875  0.5907679507339808  1.0000
  I   I2        1.0  0.46332664948466884  0.2977310606284041  0.09076795056950801  1.0000
  I   I3        1.0  0.9633266501147884  0.20226893932039167  0.5907679505396228  1.0000
  I   I4        1.0  0.9633266508230381  0.7977310605771999  0.09076795038289945  1.0000
  I   I5        1.0  0.8129120593738964  0.9312978954655639  0.6489475561254977  1.0000
  I   I6        1.0  0.8129120579136098  0.06870210443202776  0.14894755656518402  1.0000
  I   I7        1.0  0.312912058035527  0.43129789551676806  0.6489475563121062  1.0000
  I   I8        1.0  0.31291205874377687  0.5687021043808236  0.14894755615538277  1.0000
