data_image0
_chemical_formula_structural       H20C40N4O4F4I2
_chemical_formula_sum              "H20 C40 N4 O4 F4 I2"
_cell_length_a       3.8890893956625887
_cell_length_b       14.499964504982755
_cell_length_c       16.5844152483119
_cell_angle_alpha    71.0906597262952
_cell_angle_beta     86.57228814039543
_cell_angle_gamma    82.64972589969068

_space_group_name_H-M_alt    "P 1"
_space_group_IT_number       1

loop_
  _space_group_symop_operation_xyz
  'x, y, z'

loop_
  _atom_site_type_symbol
  _atom_site_label
  _atom_site_symmetry_multiplicity
  _atom_site_fract_x
  _atom_site_fract_y
  _atom_site_fract_z
  _atom_site_occupancy
  H   H1        1.0  0.701835617944333  0.43220840227934637  0.0641308474688959  1.0000
  H   H2        1.0  0.29816438351930274  0.5677915979956331  0.9358691528325765  1.0000
  H   H3        1.0  0.533783350221116  0.17860033029492994  0.4126430051216258  1.0000
  H   H4        1.0  0.46621665160282344  0.8213996695186867  0.5873569945427444  1.0000
  H   H5        1.0  0.26554068705457967  0.3355598375172496  0.3167201043505907  1.0000
  H   H6        1.0  0.7344593121631965  0.664440162062103  0.6832798959554578  1.0000
  H   H7        1.0  0.09590632224190945  0.6006464240397763  0.2347052371595082  1.0000
  H   H8        1.0  0.9040936792556407  0.3993535764693492  0.7652947625044833  1.0000
  H   H9        1.0  0.2907471693463307  0.031922092543855654  0.23736912665843274  1.0000
  H   H10       1.0  0.7092528321173049  0.9680779077311237  0.7626308736430396  1.0000
  H   H11       1.0  0.10311599101615448  0.769244168595188  0.23704521151148678  1.0000
  H   H12       1.0  0.8968840082016214  0.23075583098416477  0.7629547887945617  1.0000
  H   H13       1.0  0.01555185689030084  0.18854859380627947  0.14222673971296082  1.0000
  H   H14       1.0  0.9844481423274751  0.8114514057730731  0.8577732605930878  1.0000
  H   H15       1.0  0.6288419038248177  0.8828456880971735  0.9894208825979187  1.0000
  H   H16       1.0  0.3711580951004837  0.117154312411834  0.010579117070270353  1.0000
  H   H17       1.0  0.6134287338190175  0.7118101166222246  0.9891725839170041  1.0000
  H   H18       1.0  0.38657126543267284  0.288189883191274  0.010827415751563435  1.0000
  H   H19       1.0  0.14731666465145896  0.4645866189999077  0.2201680620436547  1.0000
  H   H20       1.0  0.852683334239928  0.5354133812749536  0.7798319382620152  1.0000
  C   C1        1.0  0.3290091842008578  0.5971072831810907  0.48467923565351384  1.0000
  C   C2        1.0  0.6709908147244437  0.40289271732791676  0.5153207640146751  1.0000
  C   C3        1.0  0.49173289289810856  0.5664989103288596  0.4188932224823815  1.0000
  C   C4        1.0  0.5082671063196675  0.433501089250493  0.581106777823667  1.0000
  C   C5        1.0  0.34210468869787725  0.5282570150504228  0.5661357745946306  1.0000
  C   C6        1.0  0.6578953101935097  0.4717429852244387  0.4338642257110392  1.0000
  C   C7        1.0  0.4223872944351493  0.1814399832451709  0.35313404705094736  1.0000
  C   C8        1.0  0.5776127047826267  0.8185600163341817  0.6468659532551012  1.0000
  C   C9        1.0  0.2722322882175041  0.26970777376904653  0.29841928697014825  1.0000
  C   C10       1.0  0.7277677106738828  0.7302922265058149  0.7015807133355217  1.0000
  C   C11       1.0  0.12615030301667995  0.27386104946945533  0.2216321195458131  1.0000
  C   C12       1.0  0.873849695874707  0.726138950805406  0.7783678807598567  1.0000
  C   C13       1.0  0.4302178077888847  0.09525837688463239  0.3311975289664071  1.0000
  C   C14       1.0  0.5697821936747511  0.9047416233903471  0.6688024713350651  1.0000
  C   C15       1.0  0.5921722876196418  0.004703791452685825  0.3854020465978024  1.0000
  C   C16       1.0  0.40782771127174516  0.9952962088221756  0.6145979537078674  1.0000
  C   C17       1.0  0.8360907836006538  0.5448113733536413  0.10789521654530754  1.0000
  C   C18       1.0  0.16390921565103678  0.45518862645985736  0.8921047831232601  1.0000
  C   C19       1.0  0.9657440684924964  0.36722792944991167  0.16286069448902812  1.0000
  C   C20       1.0  0.034255930398890494  0.6327720708249497  0.8371393058166418  1.0000
  C   C21       1.0  0.9946131227111391  0.6617951939503091  0.18069241922763757  1.0000
  C   C22       1.0  0.005386876540551531  0.33820480586318946  0.8193075804409301  1.0000
  C   C23       1.0  0.28402850637825505  0.09836974772402507  0.2546324595537138  1.0000
  C   C24       1.0  0.7159714928734355  0.9016302520894736  0.7453675401148538  1.0000
  C   C25       1.0  0.998559647060388  0.7566711628363795  0.1825867054573656  1.0000
  C   C26       1.0  0.0014403547635510377  0.24332883697723737  0.8174132942070045  1.0000
  C   C27       1.0  0.1318661583574719  0.18699055242107207  0.20076243436139907  1.0000
  C   C28       1.0  0.8681338408942187  0.8130094473924266  0.7992375653071686  1.0000
  C   C29       1.0  0.8668705327278612  0.8366227679823702  0.11345334993136899  1.0000
  C   C30       1.0  0.1331294665238292  0.16337723183112854  0.8865466497371987  1.0000
  C   C31       1.0  0.7295428749411315  0.8208058762838437  0.04293862450227387  1.0000
  C   C32       1.0  0.27045712427664464  0.17919412329550885  0.9570613758037747  1.0000
  C   C33       1.0  0.7236634470383829  0.7255549560301631  0.04247042132818155  1.0000
  C   C34       1.0  0.276336554751642  0.2744450435493077  0.9575295789736695  1.0000
  C   C35       1.0  0.8568083889704375  0.6451388247567645  0.11109536667286805  1.0000
  C   C36       1.0  0.14319161252711282  0.3548611757523608  0.8889046329911233  1.0000
  C   C37       1.0  0.9938443860355518  0.458891991486042  0.17001437306731346  1.0000
  C   C38       1.0  0.006155613182224068  0.5411080080933105  0.8299856272387351  1.0000
  C   C39       1.0  0.8739296072461876  0.9339398434533162  0.11517803132555371  1.0000
  C   C40       1.0  0.1260703920055031  0.06606015636018248  0.884821968343014  1.0000
  N   N1        1.0  0.7282100429977599  0.9298771112558897  0.4284745227568877  1.0000
  N   N2        1.0  0.2717899559275417  0.07012288925311762  0.5715254769113014  1.0000
  N   N3        1.0  0.8804288565037137  0.013591175600282177  0.11713455424606477  1.0000
  N   N4        1.0  0.11957114274797682  0.9864088242132163  0.8828654454225029  1.0000
  O   O1        1.0  0.6679816455247354  0.5374880545490025  0.04723046167478344  1.0000
  O   O2        1.0  0.3320183559728149  0.46251194596012296  0.952769537989208  1.0000
  O   O3        1.0  0.7905930426149852  0.3589038422196111  0.10024847396532363  1.0000
  O   O4        1.0  0.20940695920895405  0.6410961575940056  0.8997515256990466  1.0000
  F   F1        1.0  0.4921634978126916  0.6295266192531693  0.33812560301415195  1.0000
  F   F2        1.0  0.5078365014050844  0.37047338032618315  0.6618743972918966  1.0000
  F   F3        1.0  0.1910537089067844  0.5526447404456728  0.6335715342721935  1.0000
  F   F4        1.0  0.8089462900185171  0.44735526006333454  0.36642846539599555  1.0000
  I   I1        1.0  0.08008385426585288  0.7397296153004213  0.46237086365652463  1.0000
  I   I2        1.0  0.9199161475241717  0.2602703842790495  0.5376291366453263  1.0000
