data_image0
_chemical_formula_structural       H52C32N8O8S4
_chemical_formula_sum              "H52 C32 N8 O8 S4"
_cell_length_a       8.187184934554669
_cell_length_b       7.627989562272035
_cell_length_c       16.447121689796116
_cell_angle_alpha    90.0
_cell_angle_beta     101.8395528153228
_cell_angle_gamma    90.0

_space_group_name_H-M_alt    "P 1"
_space_group_IT_number       1

loop_
  _space_group_symop_operation_xyz
  'x, y, z'

loop_
  _atom_site_type_symbol
  _atom_site_label
  _atom_site_symmetry_multiplicity
  _atom_site_fract_x
  _atom_site_fract_y
  _atom_site_fract_z
  _atom_site_occupancy
  H   H1        1.0  0.8887431389449868  0.6390055007558451  0.5880830941850549  1.0000
  H   H2        1.0  0.11125686037745344  0.13900550090477246  0.9119169056454332  1.0000
  H   H3        1.0  0.11125686086570755  0.36099450025726154  0.41191690617452986  1.0000
  H   H4        1.0  0.888743139445904  0.8609945001083341  0.08808309410746712  1.0000
  H   H5        1.0  0.9278832806589209  0.9149686628466177  0.6901725677741032  1.0000
  H   H6        1.0  0.07211671865085623  0.4149686616845838  0.8098274326630694  1.0000
  H   H7        1.0  0.0721167191517735  0.08503133816648878  0.30982743258548157  1.0000
  H   H8        1.0  0.9278832811598381  0.5850313380175612  0.19017256769651536  1.0000
  H   H9        1.0  0.4759730479650528  0.5487245604926181  0.7908286188973618  1.0000
  H   H10       1.0  0.5240269513573874  0.04872456064154552  0.7091713809331265  1.0000
  H   H11       1.0  0.5240269518583047  0.451275439209527  0.20917138085553855  1.0000
  H   H12       1.0  0.47597304846597005  0.9512754390605995  0.29082861881977384  1.0000
  H   H13       1.0  0.3906435404543476  0.3810090386560957  0.7177307413247838  1.0000
  H   H14       1.0  0.6093564601033356  0.8810090385071683  0.7822692592460097  1.0000
  H   H15       1.0  0.6093564593563467  0.6189909623570109  0.2822692590348011  1.0000
  H   H16       1.0  0.39064353970735877  0.11899096250593826  0.21773074111357507  1.0000
  H   H17       1.0  0.1265023178705939  0.3822722771439483  0.6071436810801901  1.0000
  H   H18       1.0  0.8734976826997526  0.8822722769950209  0.8928563188839187  1.0000
  H   H19       1.0  0.8734976819527637  0.6177277238691582  0.39285631867271015  1.0000
  H   H20       1.0  0.12650231712360502  0.11772772270712423  0.1071436808689816  1.0000
  H   H21       1.0  0.23129939684253337  0.0408767877111681  0.4722008075189763  1.0000
  H   H22       1.0  0.7687006034817414  0.5408767875622407  0.027799192156336146  1.0000
  H   H23       1.0  0.7687006029808241  0.959123211990977  0.527799192233924  1.0000
  H   H24       1.0  0.23129939634161611  0.4591232121399045  0.9722008075965641  1.0000
  H   H25       1.0  0.11671787803488519  0.9325984523084617  0.5357339176226892  1.0000
  H   H26       1.0  0.8832821225354611  0.43259845245738926  0.9642660823414196  1.0000
  H   H27       1.0  0.8832821217884723  0.0674015473936833  0.4642660821302111  1.0000
  H   H28       1.0  0.11671787728789633  0.5674015472447558  0.035733917411480645  1.0000
  H   H29       1.0  0.3784983880865317  0.8194669131322386  0.6261572430969471  1.0000
  H   H30       1.0  0.6215016112232453  0.3194669132811661  0.8738427573402255  1.0000
  H   H31       1.0  0.6215016117241627  0.18053308656990646  0.37384275726263777  1.0000
  H   H32       1.0  0.378498388587449  0.6805330864209791  0.12615724301935927  1.0000
  H   H33       1.0  0.49997911011783175  0.9318000060140248  0.5665685630319819  1.0000
  H   H34       1.0  0.5000208904525146  0.43180000616295233  0.9334314369321272  1.0000
  H   H35       1.0  0.5000208897055258  0.06819999499908168  0.43343143672091844  1.0000
  H   H36       1.0  0.4999791093581797  0.5681999948501543  0.06656856342745776  1.0000
  H   H37       1.0  0.24268308485646864  0.6457463135978443  0.5010930814601147  1.0000
  H   H38       1.0  0.7573169144659717  0.14574631374677174  0.9989069183703735  1.0000
  H   H39       1.0  0.7573169149542257  0.3542536861043008  0.49890691889947014  1.0000
  H   H40       1.0  0.24268308535738592  0.8542536859553733  0.001093081382526812  1.0000
  H   H41       1.0  0.3643288152151663  0.7569279536717449  0.4408473608028635  1.0000
  H   H42       1.0  0.6356711850964454  0.2569279538206724  0.05915263947913346  1.0000
  H   H43       1.0  0.6356711858434343  0.24307204603040017  0.559152639690342  1.0000
  H   H44       1.0  0.36432881472691214  0.7430720458814728  0.9408473602737668  1.0000
  H   H45       1.0  0.6254398515501256  0.6440128135855473  0.5343564656724789  1.0000
  H   H46       1.0  0.3745601490202207  0.14401281373447475  0.9656435342916301  1.0000
  H   H47       1.0  0.37456014952113803  0.3559871861165978  0.46564353421404225  1.0000
  H   H48       1.0  0.6254398508031368  0.8559871872786318  0.03435646546127022  1.0000
  H   H49       1.0  0.5039283748840908  0.5280196213063932  0.5927453087541062  1.0000
  H   H50       1.0  0.4960716244383493  0.02801962145532072  0.907254691076382  1.0000
  H   H51       1.0  0.4960716249266034  0.47198037839575185  0.4072546916054786  1.0000
  H   H52       1.0  0.5039283753850082  0.9719803795577858  0.09274530867651837  1.0000
  C   C1        1.0  0.24115510323239742  0.5907268269331308  0.719407552860504  1.0000
  C   C2        1.0  0.7588448973379489  0.09072682708205825  0.7805924471036049  1.0000
  C   C3        1.0  0.7588448965909601  0.4092731727690143  0.28059244689239626  1.0000
  C   C4        1.0  0.24115510248540856  0.9092731726200869  0.21940755264929548  1.0000
  C   C5        1.0  0.9928072864441672  0.662218248827207  0.6396740847060794  1.0000
  C   C6        1.0  0.007192714113516045  0.1622182489761345  0.8603259158647139  1.0000
  C   C7        1.0  0.007192713366527183  0.33778175087493806  0.36032591565350525  1.0000
  C   C8        1.0  0.9928072856971782  0.8377817507260107  0.13967408449487093  1.0000
  C   C9        1.0  0.010933732165790643  0.8044269384359665  0.6905470326513728  1.0000
  C   C10       1.0  0.9890662684045558  0.3044269385848939  0.8094529673127362  1.0000
  C   C11       1.0  0.9890662676575669  0.19557306126617868  0.30945296710152753  1.0000
  C   C12       1.0  0.010933731418801784  0.6955730611172513  0.19054703244016422  1.0000
  C   C13       1.0  0.24642647820273947  0.15861314572114144  0.5897842630090719  1.0000
  C   C14       1.0  0.7535735211197009  0.658613145572214  0.9102157368214162  1.0000
  C   C15       1.0  0.7535735216079549  0.8413868539810038  0.41021573735051287  1.0000
  C   C16       1.0  0.24642647870365678  0.34138685412993114  0.08978426293148412  1.0000
  C   C17       1.0  0.2375126517192529  0.9964594652297887  0.5366322230444422  1.0000
  C   C18       1.0  0.7624873488510935  0.49645946537871605  0.9633677769196667  1.0000
  C   C19       1.0  0.7624873480914415  0.003540535783317955  0.46336777731514256  1.0000
  C   C20       1.0  0.23751265222017018  0.5035405356343905  0.03663222296685439  1.0000
  C   C21       1.0  0.3790001422046749  0.8661548768601182  0.5629944969127757  1.0000
  C   C22       1.0  0.6209998571177654  0.3661548770090456  0.9370055029177126  1.0000
  C   C23       1.0  0.6209998576186827  0.13384512284202696  0.4370055028401247  1.0000
  C   C24       1.0  0.3790001427055922  0.6338451226930996  0.06299449683518776  1.0000
  C   C25       1.0  0.3644852489496436  0.709758148697231  0.5041934256537964  1.0000
  C   C26       1.0  0.6355147516207027  0.2097581488461584  0.9958065743103126  1.0000
  C   C27       1.0  0.6355147508737138  0.2902418510049141  0.49580657409910395  1.0000
  C   C28       1.0  0.36448524945056093  0.7902418521669482  0.004193425576208494  1.0000
  C   C29       1.0  0.5046440221141414  0.5769988204715161  0.5298026261348715  1.0000
  C   C30       1.0  0.4953559784562049  0.07699881930948213  0.9701973738292373  1.0000
  C   C31       1.0  0.49535597770921613  0.4230011805415904  0.47019737361802877  1.0000
  C   C32       1.0  0.5046440213544894  0.923001180392663  0.029802626530347435  1.0000
  N   N1        1.0  0.3777472071349044  0.49535226669536014  0.7490688133672073  1.0000
  N   N2        1.0  0.622252793435442  0.9953522665464327  0.7509311865969017  1.0000
  N   N3        1.0  0.6222527926884532  0.504647733006785  0.25093118638569306  1.0000
  N   N4        1.0  0.3777472063879154  0.00464773315571242  0.2490688131559986  1.0000
  N   N5        1.0  0.12142102279131183  0.5421450798063531  0.6554344781450379  1.0000
  N   N6        1.0  0.8785789765311285  0.0421450799552805  0.8445655216854503  1.0000
  N   N7        1.0  0.8785789770320457  0.457854919895792  0.3445655216078624  1.0000
  N   N8        1.0  0.12142102329222908  0.9578549197468645  0.15543447806745  1.0000
  O   O1        1.0  0.11985764666620333  0.26582677564598456  0.5671840439164567  1.0000
  O   O2        1.0  0.880142352656237  0.7658267754970571  0.9328159559140314  1.0000
  O   O3        1.0  0.8801423531571543  0.7341732253671219  0.4328159558364436  1.0000
  O   O4        1.0  0.11985764716712058  0.2341732255160494  0.06718404383886885  1.0000
  O   O5        1.0  0.36495277685387384  0.187934057630384  0.6494222652148579  1.0000
  O   O6        1.0  0.6350472237164725  0.6879340574814566  0.850577734749251  1.0000
  O   O7        1.0  0.6350472229694836  0.8120659420717611  0.3505777345380424  1.0000
  O   O8        1.0  0.36495277735479115  0.31206594222068856  0.14942226513727005  1.0000
  S   S1        1.0  0.19710099825963653  0.7901500783130008  0.763288009499506  1.0000
  S   S2        1.0  0.8028990023107098  0.2901500771509668  0.7367119904646029  1.0000
  S   S3        1.0  0.802899002798964  0.20984992270010577  0.23671199099369958  1.0000
  S   S4        1.0  0.19710099751264767  0.7098499225511783  0.2632880092882974  1.0000
