data_image0
_chemical_formula_structural       H132C94N22O4S6
_chemical_formula_sum              "H132 C94 N22 O4 S6"
_cell_length_a       13.753438508767642
_cell_length_b       13.946799154185387
_cell_length_c       15.330166575892877
_cell_angle_alpha    72.09520524505041
_cell_angle_beta     71.1775969922901
_cell_angle_gamma    61.08173600191728

_space_group_name_H-M_alt    "P 1"
_space_group_IT_number       1

loop_
  _space_group_symop_operation_xyz
  'x, y, z'

loop_
  _atom_site_type_symbol
  _atom_site_label
  _atom_site_symmetry_multiplicity
  _atom_site_fract_x
  _atom_site_fract_y
  _atom_site_fract_z
  _atom_site_occupancy
  H   H1        1.0  0.576633795477247  0.5980454334528976  0.5729645801973896  1.0000
  H   H2        1.0  0.4233662043449108  0.40195456674365565  0.4270354200115087  1.0000
  H   H3        1.0  0.545188419611456  0.6401367512825394  0.3480369459336852  1.0000
  H   H4        1.0  0.45481158057241633  0.3598632480818953  0.6519630537501108  1.0000
  H   H5        1.0  0.36413888875346395  0.7351163929460596  0.4028516639724749  1.0000
  H   H6        1.0  0.6358611114308121  0.26488360641731074  0.5971483363638102  1.0000
  H   H7        1.0  0.22556890281283393  0.5593183334908111  0.5610048042901143  1.0000
  H   H8        1.0  0.774431097371442  0.44068166587255964  0.43899519604617077  1.0000
  H   H9        1.0  0.24305668589282506  0.6876421057081125  0.5797298325926071  1.0000
  H   H10       1.0  0.7569433139293328  0.31235789448844087  0.42027016761629116  1.0000
  H   H11       1.0  0.4440137671669586  0.7380346537682471  0.5264627065740917  1.0000
  H   H12       1.0  0.5559862330173176  0.26196534559512347  0.47353729376219345  1.0000
  H   H13       1.0  0.3035378615304842  0.9850042182003269  0.3631192941339375  1.0000
  H   H14       1.0  0.6964621382916737  0.014995781996226337  0.6368807060749608  1.0000
  H   H15       1.0  0.15415010082665292  0.03954558013303341  0.38775053111385765  1.0000
  H   H16       1.0  0.8458498989951011  0.9604544200645843  0.6122494684425517  1.0000
  H   H17       1.0  0.4391338379325606  0.9199273338756593  0.4235442584150772  1.0000
  H   H18       1.0  0.5608661618895971  0.08007266632089412  0.576455741793821  1.0000
  H   H19       1.0  0.44790048770398483  0.9510070073868164  0.523326256528222  1.0000
  H   H20       1.0  0.552099512118173  0.048992992809736846  0.47667374368067633  1.0000
  H   H21       1.0  0.157400255734335  0.3303518558383801  0.45719559532865856  1.0000
  H   H22       1.0  0.8425997440878229  0.6696481443581731  0.5428044048802397  1.0000
  H   H23       1.0  0.7512367217986768  0.2712356678171573  0.756244149089142  1.0000
  H   H24       1.0  0.24876327838559928  0.7287643315462133  0.24375585124714325  1.0000
  H   H25       1.0  0.264800679455764  0.9345663904876845  0.6091056493823233  1.0000
  H   H26       1.0  0.7351993211343342  0.06543360970953317  0.3908943499518489  1.0000
  H   H27       1.0  0.24921596649613234  0.04734923177376141  0.5129044426908849  1.0000
  H   H28       1.0  0.7507840333260256  0.952650768422792  0.4870955575180134  1.0000
  H   H29       1.0  0.21237330039376648  0.4713297599870518  0.46597357853940385  1.0000
  H   H30       1.0  0.7876266994283913  0.5286702402095016  0.5340264216694943  1.0000
  H   H31       1.0  0.17441027085264593  0.8551146718754643  0.36804393866138474  1.0000
  H   H32       1.0  0.8255897289695119  0.14488532832108902  0.6319560615475135  1.0000
  H   H33       1.0  0.23942302561374454  0.9234895882412647  0.2653342236889742  1.0000
  H   H34       1.0  0.7605769742080096  0.07651041195635296  0.7346657758674352  1.0000
  H   H35       1.0  0.9099980762031182  0.4757112128252968  0.16932839105962283  1.0000
  H   H36       1.0  0.09000192438738362  0.5242887873708567  0.8306716089270383  1.0000
  H   H37       1.0  0.5153679650817493  0.599090009837808  0.13758679289698725  1.0000
  H   H38       1.0  0.4846320347400047  0.4009099903598095  0.8624132066594222  1.0000
  H   H39       1.0  0.6562383392103166  0.4205218556279569  0.635224185790756  1.0000
  H   H40       1.0  0.3437616606118412  0.5794781445685965  0.3647758144181423  1.0000
  H   H41       1.0  0.9860716268344972  0.5179005453820107  0.7349090387750892  1.0000
  H   H42       1.0  0.013928372987660805  0.4820994548145425  0.2650909614338091  1.0000
  H   H43       1.0  0.7453204334640833  0.5802835041104855  0.2838477311757255  1.0000
  H   H44       1.0  0.2546795667197889  0.4197164952539495  0.7161522685080707  1.0000
  H   H45       1.0  0.08125740324813818  0.9075888738751989  0.5062071315008234  1.0000
  H   H46       1.0  0.9187425965736159  0.09241112632241863  0.49379286805558614  1.0000
  H   H47       1.0  0.071853935870727  0.002911731500216571  0.5667869654556903  1.0000
  H   H48       1.0  0.9281460639510273  0.997088268697401  0.43321303410071904  1.0000
  H   H49       1.0  0.678477843589789  0.49359623159151195  0.02378695602613086  1.0000
  H   H50       1.0  0.3215221562319649  0.5064037686061057  0.9762130435302786  1.0000
  H   H51       1.0  0.18637645664546312  0.8242914371201326  0.6778601266652293  1.0000
  H   H52       1.0  0.813623543176291  0.17570856307748492  0.3221398728911801  1.0000
  H   H53       1.0  0.043269619617938  0.8547060755395142  0.6844304125303597  1.0000
  H   H54       1.0  0.9567303802042199  0.14529392465703928  0.3155695876785385  1.0000
  H   H55       1.0  0.932360910813388  0.37533682838129834  0.7281333006589306  1.0000
  H   H56       1.0  0.06763908900836599  0.6246631718163193  0.27186669889747883  1.0000
  H   H57       1.0  0.6420506957576677  0.6666822706754311  0.759289725163189  1.0000
  H   H58       1.0  0.35794930442660844  0.33331772868793935  0.2407102751730959  1.0000
  H   H59       1.0  0.7398146576295141  0.516980136622041  0.8796880098936135  1.0000
  H   H60       1.0  0.26018534219264366  0.4830198635745123  0.12031199031528476  1.0000
  H   H61       1.0  0.8302751663312626  0.06482735038454653  0.907564168485881  1.0000
  H   H62       1.0  0.1697248334908953  0.9351726498120069  0.09243583172301717  1.0000
  H   H63       1.0  0.8450210661774492  0.9561248443689258  0.8607172738860985  1.0000
  H   H64       1.0  0.15497893364430487  0.04387515582869198  0.1392827256703107  1.0000
  H   H65       1.0  0.8083598793003525  0.8711929069780443  0.1804457191341391  1.0000
  H   H66       1.0  0.1916401205218053  0.12880709321850894  0.8195542810747591  1.0000
  H   H67       1.0  0.8200105021473855  0.7620614407204637  0.13687017575489555  1.0000
  H   H68       1.0  0.17998949803648695  0.2379385586439711  0.8631298239289007  1.0000
  H   H69       1.0  0.6193775236426262  0.8054781498279663  0.1973340005390384  1.0000
  H   H70       1.0  0.3806224761791278  0.19452185036965133  0.8026659990173708  1.0000
  H   H71       1.0  0.587501771043522  0.935167417682128  0.2198980870755184  1.0000
  H   H72       1.0  0.41249822877823195  0.06483258251548972  0.780101912480891  1.0000
  H   H73       1.0  0.6106668759070824  0.8992965760165904  0.05109680804194431  1.0000
  H   H74       1.0  0.38933312391467173  0.1007034241810271  0.9489031915144651  1.0000
  H   H75       1.0  0.6741119531560088  0.961644254283279  0.9437762087574997  1.0000
  H   H76       1.0  0.3258880466661491  0.03835574591327425  0.05622379145139877  1.0000
  H   H77       1.0  0.7910702375815375  0.08466286481514607  0.0941729670138274  1.0000
  H   H78       1.0  0.20892976224021648  0.9153371353824715  0.905827032542582  1.0000
  H   H79       1.0  0.7020896324917919  0.045124020189138525  0.19709906051026996  1.0000
  H   H80       1.0  0.2979103676924844  0.9548759791742318  0.8029009398260152  1.0000
  H   H81       1.0  0.9018317241549528  0.9281532365980479  0.04795384469272629  1.0000
  H   H82       1.0  0.09816827566720501  0.07184676359850531  0.952046155516172  1.0000
  H   H83       1.0  0.9181684050037336  0.8177251317150106  0.003956955696286111  1.0000
  H   H84       1.0  0.08183159481842428  0.18227486848154276  0.9960430445126123  1.0000
  H   H85       1.0  0.6721386357309468  0.09141032593119276  0.9956070951651291  1.0000
  H   H86       1.0  0.327861364091211  0.9085896742653605  0.004392905043769026  1.0000
  H   H87       1.0  0.5864638304900727  0.04828594576405617  0.09745295364721783  1.0000
  H   H88       1.0  0.41353616933168136  0.9517140544335613  0.9025470459091915  1.0000
  H   H89       1.0  0.7703434965159351  0.8801537309683856  0.3281061395480051  1.0000
  H   H90       1.0  0.22965650407416302  0.1198462692288321  0.6718938597861671  1.0000
  H   H91       1.0  0.6944456179727834  0.8363261760697339  0.4370241899829584  1.0000
  H   H92       1.0  0.3055543818493744  0.16367382412681927  0.56297581022594  1.0000
  H   H93       1.0  0.6200710181316873  0.9547310294405177  0.3587362787545004  1.0000
  H   H94       1.0  0.3799289820521851  0.045268969923917046  0.6412637209292957  1.0000
  H   H95       1.0  0.7772998016146269  0.7134061498605472  0.034452716072235344  1.0000
  H   H96       1.0  0.22270019820753095  0.2865938503360061  0.9655472841366629  1.0000
  H   H97       1.0  0.8407762523599828  0.7745154665887698  0.9270539337287077  1.0000
  H   H98       1.0  0.15922374746177134  0.22548453360884785  0.07294606582770155  1.0000
  H   H99       1.0  0.6029103550027703  0.7784333920513347  0.3629344767070352  1.0000
  H   H100      1.0  0.39708964518150575  0.22156660731203578  0.63706552362925  1.0000
  H   H101      1.0  0.7500097619861394  0.7156861196879974  0.31850926583419176  1.0000
  H   H102      1.0  0.24999023783601854  0.28431388050855566  0.6814907343747065  1.0000
  H   H103      1.0  0.050613827343652364  0.8641162603550788  0.8513507776859309  1.0000
  H   H104      1.0  0.9493861724781019  0.13588373984253876  0.14864922187047824  1.0000
  H   H105      1.0  0.04068567101810727  0.9516950380081434  0.9179062527758097  1.0000
  H   H106      1.0  0.9593143295723946  0.04830496218801008  0.08209374721085134  1.0000
  H   H107      1.0  0.5357723533227443  0.2206121051535915  0.1559119496415845  1.0000
  H   H108      1.0  0.4642276468611281  0.7793878942108432  0.8440880500422118  1.0000
  H   H109      1.0  0.6233190223647258  0.2593285385241786  0.052253254129510956  1.0000
  H   H110      1.0  0.37668097745743206  0.7406714616723747  0.9477467460793874  1.0000
  H   H111      1.0  0.6113099182271983  0.938194642018831  0.844890066636009  1.0000
  H   H112      1.0  0.3886900819570778  0.061805357344539416  0.15510993370027595  1.0000
  H   H113      1.0  0.6258611439134518  0.8337150358303349  0.7921941853632921  1.0000
  H   H114      1.0  0.37413885590870594  0.16628496436621848  0.20780581484560628  1.0000
  H   H115      1.0  0.7462649703090056  0.8533129725540626  0.7847322815778255  1.0000
  H   H116      1.0  0.25373502951315235  0.14668702764249059  0.2152677186310727  1.0000
  H   H117      1.0  0.9812737765421092  0.035642355102064774  0.7222454349554043  1.0000
  H   H118      1.0  0.01872622328004869  0.9643576450944884  0.27775456525349407  1.0000
  H   H119      1.0  0.11098076496911773  0.010001796379636385  0.744306864805381  1.0000
  H   H120      1.0  0.88901923485304  0.9899982038169169  0.2556931354035173  1.0000
  H   H121      1.0  0.9818841760083808  0.11695067105578626  0.7903192184790074  1.0000
  H   H122      1.0  0.018115823813777  0.8830493291407671  0.20968078172989082  1.0000
  H   H123      1.0  0.7390559133138137  0.6829842171095482  0.9032347587538493  1.0000
  H   H124      1.0  0.26094408650834416  0.3170157830870051  0.09676524145504885  1.0000
  H   H125      1.0  0.6102294009910842  0.768107546180824  0.9690701653213666  1.0000
  H   H126      1.0  0.3897705988310735  0.2318924540157293  0.030929834887531732  1.0000
  H   H127      1.0  0.6537134817099266  0.21924474175914635  0.2528983162151171  1.0000
  H   H128      1.0  0.34628651811223116  0.780755258437407  0.7471016839937813  1.0000
  H   H129      1.0  0.5939000555581079  0.35206364348680036  0.1826750948512045  1.0000
  H   H130      1.0  0.4060999446257643  0.6479363558776344  0.8173249048325916  1.0000
  H   H131      1.0  0.7392069629073782  0.2618254509016381  0.1485169743993344  1.0000
  H   H132      1.0  0.2607930369147795  0.7381745492949153  0.8514830258095638  1.0000
  C   C1        1.0  0.6386875862964924  0.5550334157529379  0.690341503892467  1.0000
  C   C2        1.0  0.36131241352566557  0.44496658444361536  0.3096584963164312  1.0000
  C   C3        1.0  0.5404373237368996  0.7475186084585017  0.5986508949346259  1.0000
  C   C4        1.0  0.45956267644737664  0.2524813909048687  0.4013491054016591  1.0000
  C   C5        1.0  0.43298001755194654  0.7537845113416524  0.262122474103736  1.0000
  C   C6        1.0  0.5670199826319258  0.24621548802278248  0.73787752558006  1.0000
  C   C7        1.0  0.04016723943252344  0.3438852228671666  0.5923861896462242  1.0000
  C   C8        1.0  0.9598327603892308  0.656114777330451  0.40761380991018503  1.0000
  C   C9        1.0  0.10312076812398871  0.5043403437550602  0.6003715885805575  1.0000
  C   C10       1.0  0.8968792316977653  0.49565965644255733  0.39962841097585183  1.0000
  C   C11       1.0  0.09129710969479139  0.6747577317449365  0.6362378711715548  1.0000
  C   C12       1.0  0.9087028901273664  0.32524226845161686  0.36376212903734334  1.0000
  C   C13       1.0  0.2324864761287143  0.961284887293882  0.3946737457039886  1.0000
  C   C14       1.0  0.7675135244617877  0.03871511290227149  0.6053262542826725  1.0000
  C   C15       1.0  0.41447717164676834  0.9077898179626978  0.500496579439614  1.0000
  C   C16       1.0  0.5855228281753894  0.0922101822338555  0.4995034207692843  1.0000
  C   C17       1.0  0.6201242009930015  0.5994528831781746  0.21646457150645615  1.0000
  C   C18       1.0  0.3798757988287525  0.40054711701944296  0.7835354280499532  1.0000
  C   C19       1.0  0.0019901472673196025  0.26861470392564024  0.5862043302533336  1.0000
  C   C20       1.0  0.9980098525548383  0.7313852962709131  0.4137956699555647  1.0000
  C   C21       1.0  0.12124622046124413  0.36994957815858154  0.5185052517985727  1.0000
  C   C22       1.0  0.8787537793609137  0.6300504220379717  0.48149474841032563  1.0000
  C   C23       1.0  0.7261005674851811  0.357655588659128  0.7577275688324848  1.0000
  C   C24       1.0  0.2738994323369767  0.6423444115374254  0.24227243137641355  1.0000
  C   C25       1.0  0.2856992032732218  0.9552068532475287  0.5322026773892706  1.0000
  C   C26       1.0  0.7143007965489363  0.04479314694902437  0.4677973228196277  1.0000
  C   C27       1.0  0.7488951511189531  0.383620260108067  0.8287189213964249  1.0000
  C   C28       1.0  0.25110484870320465  0.6163797400884863  0.17128107881247343  1.0000
  C   C29       1.0  0.1519926995082889  0.44856195001546545  0.523606763990634  1.0000
  C   C30       1.0  0.8480073006755834  0.5514380493489693  0.4763932356931622  1.0000
  C   C31       1.0  0.24319917405165378  0.8824043904977239  0.3385201220385522  1.0000
  C   C32       1.0  0.7568008257705042  0.11759560969882943  0.661479878170346  1.0000
  C   C33       1.0  0.8062279843932842  0.2963072117649433  0.8967407685603056  1.0000
  C   C34       1.0  0.19377201542887346  0.7036927884316101  0.10325923164859271  1.0000
  C   C35       1.0  0.8238029529139895  0.5031867578339068  0.1621988619531963  1.0000
  C   C36       1.0  0.1761970480386306  0.49681324152906386  0.8378011381608514  1.0000
  C   C37       1.0  0.60163545954815  0.5733733031350429  0.14340002701430996  1.0000
  C   C38       1.0  0.39836454027400775  0.4266266970615105  0.8565999731945884  1.0000
  C   C39       1.0  0.6724982587305907  0.44191244648882577  0.6900100090380465  1.0000
  C   C40       1.0  0.32750174145328187  0.558087552875609  0.3099899906457498  1.0000
  C   C41       1.0  0.023993762707006566  0.47630358240899184  0.6749474961266954  1.0000
  C   C42       1.0  0.9760062371147474  0.5236964177886259  0.325052503429714  1.0000
  C   C43       1.0  0.7315037342168702  0.5616652793945863  0.22623000694397075  1.0000
  C   C44       1.0  0.26849626596700216  0.43833471996984835  0.7737699927398253  1.0000
  C   C45       1.0  0.12427634767508187  0.9186029750706498  0.5490000584928998  1.0000
  C   C46       1.0  0.8757236521470759  0.08139702512590348  0.4509999417159985  1.0000
  C   C47       1.0  0.6934097953066417  0.51465792890766  0.07947482102718734  1.0000
  C   C48       1.0  0.30659020451551605  0.4853420712888933  0.9205251791817108  1.0000
  C   C49       1.0  0.1282168472669404  0.8309762343916438  0.6387621566506623  1.0000
  C   C50       1.0  0.8717831529173357  0.16902376497172647  0.36123784368562273  1.0000
  C   C51       1.0  0.9937969119923257  0.3965317090882748  0.6706048064366923  1.0000
  C   C52       1.0  0.006203087829832091  0.6034682911082785  0.32939519377220583  1.0000
  C   C53       1.0  0.8054466295608749  0.48091449682845333  0.08689251077923843  1.0000
  C   C54       1.0  0.19455337062340117  0.5190855025349171  0.9131074895570467  1.0000
  C   C55       1.0  0.8994420347741108  0.42762932779790536  0.017550939440061142  1.0000
  C   C56       1.0  0.10055796504804698  0.5723706723986479  0.9824490607688372  1.0000
  C   C57       1.0  0.6636408437664567  0.580485311551915  0.7604709255614304  1.0000
  C   C58       1.0  0.33635915605529726  0.4195146886457027  0.2395290739949793  1.0000
  C   C59       1.0  0.718123890009217  0.4958824081590366  0.8279919560067404  1.0000
  C   C60       1.0  0.2818761105812849  0.5041175920371168  0.17200804397992076  1.0000
  C   C61       1.0  0.8785832682561114  0.9753239499514839  0.9060699509896875  1.0000
  C   C62       1.0  0.12141673156564273  0.024676050246133577  0.09393004856672209  1.0000
  C   C63       1.0  0.7626527651919667  0.8464007144394905  0.1513043009275122  1.0000
  C   C64       1.0  0.23734723463019117  0.15359928575706278  0.848695699281386  1.0000
  C   C65       1.0  0.6533814797842618  0.8491964989893391  0.21914309273674334  1.0000
  C   C66       1.0  0.34661852003789617  0.15080350120721414  0.7808569074721549  1.0000
  C   C67       1.0  0.6922777599460364  0.8938135672086924  0.004485238266472949  1.0000
  C   C68       1.0  0.3077222402382398  0.10618643215467798  0.9955147620698122  1.0000
  C   C69       1.0  0.7047685380882003  0.0905283465530132  0.1243303443870916  1.0000
  C   C70       1.0  0.29523146173395753  0.9094716536435401  0.8756696558218066  1.0000
  C   C71       1.0  0.868237412105255  0.9073041757079471  0.004068534215718968  1.0000
  C   C72       1.0  0.13176258807902103  0.0926958236554234  0.9959314661205659  1.0000
  C   C73       1.0  0.672362061330481  0.04328848332379061  0.06717662476903632  1.0000
  C   C74       1.0  0.3276379384916769  0.9567115168727628  0.9328233754398618  1.0000
  C   C75       1.0  0.6909812321403151  0.8710507312895144  0.3628426942760744  1.0000
  C   C76       1.0  0.3090187680439609  0.1289492680738561  0.6371573060602107  1.0000
  C   C77       1.0  0.7588083339319186  0.7814675338616599  0.9737856412162007  1.0000
  C   C78       1.0  0.24119166588983545  0.21853246633595771  0.026214358340208785  1.0000
  C   C79       1.0  0.6750117318337373  0.796584276194933  0.31883055550946837  1.0000
  C   C80       1.0  0.3249882679880169  0.2034157240026846  0.6811694440469409  1.0000
  C   C81       1.0  0.003992904072333714  0.9500839355496824  0.8646657020410575  1.0000
  C   C82       1.0  0.9960070957494203  0.049916064647935174  0.13533429751535178  1.0000
  C   C83       1.0  0.6226770963569577  0.2133978601519597  0.12496002711379049  1.0000
  C   C84       1.0  0.3773229034652001  0.7866021400445937  0.8750399730951078  1.0000
  C   C85       1.0  0.6665981085084467  0.8529333527395236  0.8313616781853279  1.0000
  C   C86       1.0  0.3334018913137114  0.14706664745702955  0.16863832202357035  1.0000
  C   C87       1.0  0.020512457674180272  0.03224887208236244  0.7757242354519108  1.0000
  C   C88       1.0  0.9794875421475738  0.9677511281152552  0.22427576410449854  1.0000
  C   C89       1.0  0.6901769300770411  0.7667637079519734  0.9211699309253416  1.0000
  C   C90       1.0  0.30982307010723487  0.23323629141139715  0.07883006941094334  1.0000
  C   C91       1.0  0.6541048563805396  0.26468690379940674  0.18021565804692238  1.0000
  C   C92       1.0  0.34589514420996237  0.7353130963967467  0.8197843419397386  1.0000
  C   C93       1.0  0.4341278907872319  0.5302551650664087  0.5136717581305383  1.0000
  C   C94       1.0  0.565872109034522  0.46974483513120896  0.4863282414258711  1.0000
  N   N1        1.0  0.23707018493731666  0.9084576811632621  0.49324153678931243  1.0000
  N   N2        1.0  0.7629298152469596  0.09154231820010844  0.5067584635469726  1.0000
  N   N3        1.0  0.5827428189465506  0.6323795230276282  0.6206207586643893  1.0000
  N   N4        1.0  0.41725718087520347  0.3676204771699894  0.37937924089202  1.0000
  N   N5        1.0  0.5298090278905633  0.6594579948645398  0.2821979256531518  1.0000
  N   N6        1.0  0.4701909719315945  0.34054200533201356  0.7178020745557464  1.0000
  N   N7        1.0  0.3511339418404363  0.784073274655575  0.3382698184080611  1.0000
  N   N8        1.0  0.6488660579817216  0.2159267255409783  0.6617301818008372  1.0000
  N   N9        1.0  0.14259220058274588  0.5802932797695959  0.5976775168558572  1.0000
  N   N10       1.0  0.8574077992390082  0.4197067204280217  0.4023224827005521  1.0000
  N   N11       1.0  0.16260153220078072  0.7222099415382515  0.6200171477680577  1.0000
  N   N12       1.0  0.8373984676213772  0.27779005865830186  0.3799828524408406  1.0000
  N   N13       1.0  0.468892453072849  0.790291486039635  0.5392014349202765  1.0000
  N   N14       1.0  0.5311075475176529  0.2097085141565186  0.4607985650663846  1.0000
  N   N15       1.0  0.8546078024067274  0.22226036296446988  0.9511454501448121  1.0000
  N   N16       1.0  0.1453921977775486  0.7777396363989005  0.04885455019147288  1.0000
  N   N17       1.0  0.9689746151003195  0.208227108471401  0.5802792814413008  1.0000
  N   N18       1.0  0.031025384721434655  0.7917728917262166  0.41972071811510864  1.0000
  N   N19       1.0  0.9765986604546788  0.3859799943135307  0.959436410523365  1.0000
  N   N20       1.0  0.023401339367479106  0.6140200058830225  0.040563589685533356  1.0000
  N   N21       1.0  0.7488864872293158  0.9224823536754677  0.05678199847783464  1.0000
  N   N22       1.0  0.25111351259284187  0.07751764652108559  0.9432180017310637  1.0000
  O   O1        1.0  0.38025662587727577  0.47140681858416317  0.5327697013875875  1.0000
  O   O2        1.0  0.6197433739448822  0.52859318161239  0.46723029882131084  1.0000
  O   O3        1.0  0.3903769138812724  0.6337421548338235  0.5141191231958159  1.0000
  O   O4        1.0  0.6096230867092295  0.36625784536232997  0.4858808767908452  1.0000
  S   S1        1.0  0.42186432767242465  0.8237932907071587  0.1519135035775811  1.0000
  S   S2        1.0  0.5781356721497333  0.17620670948939468  0.8480864966313172  1.0000
  S   S3        1.0  0.5753836722534952  0.8251845912009961  0.6366476629097368  1.0000
  S   S4        1.0  0.4246163275686626  0.17481540899555725  0.3633523372991613  1.0000
  S   S5        1.0  0.9557612549515722  0.7260996369226801  0.6950921945037394  1.0000
  S   S6        1.0  0.04423874523270389  0.2739003624406904  0.30490780583254556  1.0000
