data_image0
_chemical_formula_structural       H48C112N24
_chemical_formula_sum              "H48 C112 N24"
_cell_length_a       18.307379116139288
_cell_length_b       7.33772116180577
_cell_length_c       14.676773296290463
_cell_angle_alpha    90.0
_cell_angle_beta     90.0
_cell_angle_gamma    90.0

_space_group_name_H-M_alt    "P 1"
_space_group_IT_number       1

loop_
  _space_group_symop_operation_xyz
  'x, y, z'

loop_
  _atom_site_type_symbol
  _atom_site_label
  _atom_site_symmetry_multiplicity
  _atom_site_fract_x
  _atom_site_fract_y
  _atom_site_fract_z
  _atom_site_occupancy
  H   H1        1.0  0.5658110794716766  0.17226316347089599  0.2285175632472087  1.0000
  H   H2        1.0  0.4341889207392062  0.32773683776887796  0.7285175633735831  1.0000
  H   H3        1.0  0.4341889207392062  0.672263163347849  0.2714824368791657  1.0000
  H   H4        1.0  0.5658110794716766  0.827736837645831  0.7714824363241914  1.0000
  H   H5        1.0  0.06581107936623522  0.672263163347849  0.2285175632472087  1.0000
  H   H6        1.0  0.9341889208446477  0.827736837645831  0.7285175633735831  1.0000
  H   H7        1.0  0.9341889208446477  0.17226316347089599  0.2714824368791657  1.0000
  H   H8        1.0  0.06581107936623522  0.32773683776887796  0.7714824363241914  1.0000
  H   H9        1.0  0.4341889207392062  0.827736837645831  0.7714824363241914  1.0000
  H   H10       1.0  0.5658110794716766  0.672263163347849  0.2714824368791657  1.0000
  H   H11       1.0  0.5658110794716766  0.32773683776887796  0.7285175633735831  1.0000
  H   H12       1.0  0.4341889207392062  0.17226316347089599  0.2285175632472087  1.0000
  H   H13       1.0  0.9341889208446477  0.32773683776887796  0.7714824363241914  1.0000
  H   H14       1.0  0.06581107936623522  0.17226316347089599  0.2714824368791657  1.0000
  H   H15       1.0  0.06581107936623522  0.827736837645831  0.7285175633735831  1.0000
  H   H16       1.0  0.9341889208446477  0.672263163347849  0.2285175632472087  1.0000
  H   H17       1.0  0.6843788578647291  0.2648425167905611  0.2995826494854501  1.0000
  H   H18       1.0  0.3156211423461537  0.23515748308639187  0.7995826496118245  1.0000
  H   H19       1.0  0.3156211423461537  0.764842516667514  0.20041735064092428  1.0000
  H   H20       1.0  0.6843788578647291  0.7351574829633448  0.7004173507672987  1.0000
  H   H21       1.0  0.1843788577592877  0.764842516667514  0.2995826494854501  1.0000
  H   H22       1.0  0.8156211424515951  0.7351574829633448  0.7995826496118245  1.0000
  H   H23       1.0  0.8156211424515951  0.2648425167905611  0.20041735064092428  1.0000
  H   H24       1.0  0.1843788577592877  0.23515748308639187  0.7004173507672987  1.0000
  H   H25       1.0  0.3156211423461537  0.7351574829633448  0.7004173507672987  1.0000
  H   H26       1.0  0.6843788578647291  0.764842516667514  0.20041735064092428  1.0000
  H   H27       1.0  0.6843788578647291  0.23515748308639187  0.7995826496118245  1.0000
  H   H28       1.0  0.3156211423461537  0.2648425167905611  0.2995826494854501  1.0000
  H   H29       1.0  0.8156211424515951  0.23515748308639187  0.7004173507672987  1.0000
  H   H30       1.0  0.1843788577592877  0.2648425167905611  0.20041735064092428  1.0000
  H   H31       1.0  0.1843788577592877  0.7351574829633448  0.7995826496118245  1.0000
  H   H32       1.0  0.8156211424515951  0.764842516667514  0.2995826494854501  1.0000
  H   H33       1.0  0.6855764072168739  0.4366073334424155  0.4419355371278628  1.0000
  H   H34       1.0  0.314423592994009  0.06339266643453748  0.9419355372542372  1.0000
  H   H35       1.0  0.314423592994009  0.9366073333193685  0.05806446231716288  1.0000
  H   H36       1.0  0.6855764072168739  0.5633926663114904  0.5580644624435372  1.0000
  H   H37       1.0  0.1855764071114324  0.9366073333193685  0.4419355371278628  1.0000
  H   H38       1.0  0.8144235930994504  0.5633926663114904  0.9419355372542372  1.0000
  H   H39       1.0  0.8144235930994504  0.4366073334424155  0.05806446231716288  1.0000
  H   H40       1.0  0.1855764071114324  0.06339266643453748  0.5580644624435372  1.0000
  H   H41       1.0  0.314423592994009  0.5633926663114904  0.5580644624435372  1.0000
  H   H42       1.0  0.6855764072168739  0.9366073333193685  0.05806446231716288  1.0000
  H   H43       1.0  0.6855764072168739  0.06339266643453748  0.9419355372542372  1.0000
  H   H44       1.0  0.314423592994009  0.4366073334424155  0.4419355371278628  1.0000
  H   H45       1.0  0.8144235930994504  0.06339266643453748  0.5580644624435372  1.0000
  H   H46       1.0  0.1855764071114324  0.4366073334424155  0.05806446231716288  1.0000
  H   H47       1.0  0.1855764071114324  0.5633926663114904  0.9419355372542372  1.0000
  H   H48       1.0  0.8144235930994504  0.9366073333193685  0.4419355371278628  1.0000
  C   C1        1.0  0.4375946299674066  0.054316228596225015  0.5404443381301527  1.0000
  C   C2        1.0  0.5624053702434761  0.44568377128072795  0.04044433868512704  1.0000
  C   C3        1.0  0.5624053702434761  0.554316228473178  0.9595556615676216  1.0000
  C   C4        1.0  0.4375946299674066  0.9456837711576809  0.4595556614412473  1.0000
  C   C5        1.0  0.937594630072848  0.554316228473178  0.5404443381301527  1.0000
  C   C6        1.0  0.062405370138034766  0.9456837711576809  0.04044433868512704  1.0000
  C   C7        1.0  0.062405370138034766  0.054316228596225015  0.9595556615676216  1.0000
  C   C8        1.0  0.937594630072848  0.44568377128072795  0.4595556614412473  1.0000
  C   C9        1.0  0.5624053702434761  0.9456837711576809  0.4595556614412473  1.0000
  C   C10       1.0  0.4375946299674066  0.554316228473178  0.9595556615676216  1.0000
  C   C11       1.0  0.4375946299674066  0.44568377128072795  0.04044433868512704  1.0000
  C   C12       1.0  0.5624053702434761  0.054316228596225015  0.5404443381301527  1.0000
  C   C13       1.0  0.062405370138034766  0.44568377128072795  0.4595556614412473  1.0000
  C   C14       1.0  0.937594630072848  0.054316228596225015  0.9595556615676216  1.0000
  C   C15       1.0  0.937594630072848  0.9456837711576809  0.04044433868512704  1.0000
  C   C16       1.0  0.062405370138034766  0.554316228473178  0.5404443381301527  1.0000
  C   C17       1.0  0.37019118613353985  0.11027034717695339  0.5807284351904675  1.0000
  C   C18       1.0  0.6298088135311151  0.38972965269999954  0.08072843506409307  1.0000
  C   C19       1.0  0.6298088135311151  0.6102703470539064  0.919271564507307  1.0000
  C   C20       1.0  0.37019118613353985  0.8897296539397735  0.41927156506228125  1.0000
  C   C21       1.0  0.8701911862389813  0.6102703470539064  0.5807284351904675  1.0000
  C   C22       1.0  0.12980881397190153  0.8897296539397735  0.08072843506409307  1.0000
  C   C23       1.0  0.12980881397190153  0.11027034717695339  0.919271564507307  1.0000
  C   C24       1.0  0.8701911862389813  0.38972965269999954  0.41927156506228125  1.0000
  C   C25       1.0  0.6298088135311151  0.8897296539397735  0.41927156506228125  1.0000
  C   C26       1.0  0.37019118613353985  0.6102703470539064  0.919271564507307  1.0000
  C   C27       1.0  0.37019118613353985  0.38972965269999954  0.08072843506409307  1.0000
  C   C28       1.0  0.6298088135311151  0.11027034717695339  0.5807284351904675  1.0000
  C   C29       1.0  0.12980881397190153  0.38972965269999954  0.41927156506228125  1.0000
  C   C30       1.0  0.8701911862389813  0.11027034717695339  0.919271564507307  1.0000
  C   C31       1.0  0.8701911862389813  0.8897296539397735  0.08072843506409307  1.0000
  C   C32       1.0  0.12980881397190153  0.6102703470539064  0.5807284351904675  1.0000
  C   C33       1.0  0.5000000001054414  0.3020771191930272  0.33180633111167884  1.0000
  C   C34       1.0  0.5000000001054414  0.19792288204674663  0.8318063312380531  1.0000
  C   C35       1.0  0.5000000001054414  0.8020771190699802  0.1681936690146955  1.0000
  C   C36       1.0  0.5000000001054414  0.6979228819236996  0.6681936691410699  1.0000
  C   C37       1.0  0.0  0.8020771190699802  0.33180633111167884  1.0000
  C   C38       1.0  0.0  0.6979228819236996  0.8318063312380531  1.0000
  C   C39       1.0  0.0  0.3020771191930272  0.1681936690146955  1.0000
  C   C40       1.0  0.0  0.19792288204674663  0.6681936691410699  1.0000
  C   C41       1.0  0.5671718679188902  0.2511605169180975  0.2914074022715188  1.0000
  C   C42       1.0  0.4328281322919927  0.24883948295885547  0.7914074023978932  1.0000
  C   C43       1.0  0.4328281322919927  0.7511605181578713  0.20859259717350692  1.0000
  C   C44       1.0  0.5671718679188902  0.7488394828358084  0.7085925972998812  1.0000
  C   C45       1.0  0.06717186781344872  0.7511605181578713  0.2914074022715188  1.0000
  C   C46       1.0  0.9328281323974341  0.7488394828358084  0.7914074023978932  1.0000
  C   C47       1.0  0.9328281323974341  0.2511605169180975  0.20859259717350692  1.0000
  C   C48       1.0  0.06717186781344872  0.24883948295885547  0.7085925972998812  1.0000
  C   C49       1.0  0.4328281322919927  0.7488394828358084  0.7085925972998812  1.0000
  C   C50       1.0  0.5671718679188902  0.7511605181578713  0.20859259717350692  1.0000
  C   C51       1.0  0.5671718679188902  0.24883948295885547  0.7914074023978932  1.0000
  C   C52       1.0  0.4328281322919927  0.2511605169180975  0.2914074022715188  1.0000
  C   C53       1.0  0.9328281323974341  0.24883948295885547  0.7085925972998812  1.0000
  C   C54       1.0  0.06717186781344872  0.2511605169180975  0.20859259717350692  1.0000
  C   C55       1.0  0.06717186781344872  0.7488394828358084  0.7914074023978932  1.0000
  C   C56       1.0  0.9328281323974341  0.7511605181578713  0.2914074022715188  1.0000
  C   C57       1.0  0.6326020538783869  0.30190027000901154  0.33100297060716116  1.0000
  C   C58       1.0  0.36739794578626817  0.1980997298679414  0.8310029707335356  1.0000
  C   C59       1.0  0.36739794578626817  0.8019002698859645  0.16899702951921322  1.0000
  C   C60       1.0  0.6326020538783869  0.6980997297448944  0.6689970296455876  1.0000
  C   C61       1.0  0.13260205431917324  0.8019002698859645  0.33100297060716116  1.0000
  C   C62       1.0  0.8673979458917095  0.6980997297448944  0.8310029707335356  1.0000
  C   C63       1.0  0.8673979458917095  0.30190027000901154  0.16899702951921322  1.0000
  C   C64       1.0  0.13260205431917324  0.1980997298679414  0.6689970296455876  1.0000
  C   C65       1.0  0.36739794578626817  0.6980997297448944  0.6689970296455876  1.0000
  C   C66       1.0  0.6326020538783869  0.8019002698859645  0.16899702951921322  1.0000
  C   C67       1.0  0.6326020538783869  0.1980997298679414  0.8310029707335356  1.0000
  C   C68       1.0  0.36739794578626817  0.30190027000901154  0.33100297060716116  1.0000
  C   C69       1.0  0.8673979458917095  0.1980997298679414  0.6689970296455876  1.0000
  C   C70       1.0  0.13260205431917324  0.30190027000901154  0.16899702951921322  1.0000
  C   C71       1.0  0.13260205431917324  0.6980997297448944  0.8310029707335356  1.0000
  C   C72       1.0  0.8673979458917095  0.8019002698859645  0.33100297060716116  1.0000
  C   C73       1.0  0.632967230125494  0.40079228893405666  0.41273070161348335  1.0000
  C   C74       1.0  0.367032769539161  0.09920771094289631  0.9127307010585091  1.0000
  C   C75       1.0  0.367032769539161  0.9007922888110096  0.08726929851289102  1.0000
  C   C76       1.0  0.632967230125494  0.5992077108198492  0.5872692986392654  1.0000
  C   C77       1.0  0.13296723056628043  0.9007922888110096  0.41273070161348335  1.0000
  C   C78       1.0  0.8670327696446024  0.5992077108198492  0.9127307010585091  1.0000
  C   C79       1.0  0.8670327696446024  0.40079228893405666  0.08726929851289102  1.0000
  C   C80       1.0  0.13296723056628043  0.09920771094289631  0.5872692986392654  1.0000
  C   C81       1.0  0.367032769539161  0.5992077108198492  0.5872692986392654  1.0000
  C   C82       1.0  0.632967230125494  0.9007922888110096  0.08726929851289102  1.0000
  C   C83       1.0  0.632967230125494  0.09920771094289631  0.9127307010585091  1.0000
  C   C84       1.0  0.367032769539161  0.40079228893405666  0.41273070161348335  1.0000
  C   C85       1.0  0.8670327696446024  0.09920771094289631  0.5872692986392654  1.0000
  C   C86       1.0  0.13296723056628043  0.40079228893405666  0.08726929851289102  1.0000
  C   C87       1.0  0.13296723056628043  0.5992077108198492  0.9127307010585091  1.0000
  C   C88       1.0  0.8670327696446024  0.9007922888110096  0.41273070161348335  1.0000
  C   C89       1.0  0.5681718182604364  0.45074606367108894  0.45669522821437375  1.0000
  C   C90       1.0  0.4318281819504464  0.04925393620586404  0.9566952283407482  1.0000
  C   C91       1.0  0.4318281819504464  0.9507460635480419  0.04330477191200062  1.0000
  C   C92       1.0  0.5681718182604364  0.5492539360828169  0.5433047713570264  1.0000
  C   C93       1.0  0.06817181815499496  0.9507460635480419  0.45669522821437375  1.0000
  C   C94       1.0  0.9318281820558878  0.5492539360828169  0.9566952283407482  1.0000
  C   C95       1.0  0.9318281820558878  0.45074606367108894  0.04330477191200062  1.0000
  C   C96       1.0  0.06817181815499496  0.04925393620586404  0.5433047713570264  1.0000
  C   C97       1.0  0.4318281819504464  0.5492539360828169  0.5433047713570264  1.0000
  C   C98       1.0  0.5681718182604364  0.9507460635480419  0.04330477191200062  1.0000
  C   C99       1.0  0.5681718182604364  0.04925393620586404  0.9566952283407482  1.0000
  C   C100      1.0  0.4318281819504464  0.45074606367108894  0.45669522821437375  1.0000
  C   C101      1.0  0.9318281820558878  0.04925393620586404  0.5433047713570264  1.0000
  C   C102      1.0  0.06817181815499496  0.45074606367108894  0.04330477191200062  1.0000
  C   C103      1.0  0.06817181815499496  0.5492539360828169  0.9566952283407482  1.0000
  C   C104      1.0  0.9318281820558878  0.9507460635480419  0.45669522821437375  1.0000
  C   C105      1.0  0.5000000001054414  0.4035060429131053  0.41541141413835037  1.0000
  C   C106      1.0  0.5000000001054414  0.09649395696384763  0.9154114142647248  1.0000
  C   C107      1.0  0.5000000001054414  0.9035060427900583  0.08458858530667529  1.0000
  C   C108      1.0  0.5000000001054414  0.5964939568408005  0.5845885854330496  1.0000
  C   C109      1.0  0.0  0.9035060427900583  0.41541141413835037  1.0000
  C   C110      1.0  0.0  0.5964939568408005  0.9154114142647248  1.0000
  C   C111      1.0  0.0  0.4035060429131053  0.08458858530667529  1.0000
  C   C112      1.0  0.0  0.09649395696384763  0.5845885854330496  1.0000
  N   N1        1.0  0.5000000001054414  0.10639463707937845  0.5799877792042674  1.0000
  N   N2        1.0  0.5000000001054414  0.39360536279757447  0.0799877797592416  1.0000
  N   N3        1.0  0.5000000001054414  0.6063946369563313  0.9200122204935072  1.0000
  N   N4        1.0  0.5000000001054414  0.8936053626745274  0.4200122203671328  1.0000
  N   N5        1.0  0.0  0.6063946369563313  0.5799877792042674  1.0000
  N   N6        1.0  0.0  0.8936053626745274  0.0799877797592416  1.0000
  N   N7        1.0  0.0  0.10639463707937845  0.9200122204935072  1.0000
  N   N8        1.0  0.0  0.39360536279757447  0.4200122203671328  1.0000
  N   N9        1.0  0.3140241972119249  0.15565004922031295  0.6107482400280444  1.0000
  N   N10       1.0  0.68597580245273  0.34434995065664  0.11074823990166997  1.0000
  N   N11       1.0  0.68597580245273  0.6556500490972659  0.8892517603510788  1.0000
  N   N12       1.0  0.3140241972119249  0.844349950533593  0.38925176022470437  1.0000
  N   N13       1.0  0.8140241973173663  0.6556500490972659  0.6107482400280444  1.0000
  N   N14       1.0  0.18597580289351648  0.844349950533593  0.11074823990166997  1.0000
  N   N15       1.0  0.18597580289351648  0.15565004922031295  0.8892517603510788  1.0000
  N   N16       1.0  0.8140241973173663  0.34434995065664  0.38925176022470437  1.0000
  N   N17       1.0  0.68597580245273  0.844349950533593  0.38925176022470437  1.0000
  N   N18       1.0  0.3140241972119249  0.6556500490972659  0.8892517603510788  1.0000
  N   N19       1.0  0.3140241972119249  0.34434995065664  0.11074823990166997  1.0000
  N   N20       1.0  0.68597580245273  0.15565004922031295  0.6107482400280444  1.0000
  N   N21       1.0  0.18597580289351648  0.34434995065664  0.38925176022470437  1.0000
  N   N22       1.0  0.8140241973173663  0.15565004922031295  0.8892517603510788  1.0000
  N   N23       1.0  0.8140241973173663  0.844349950533593  0.11074823990166997  1.0000
  N   N24       1.0  0.18597580289351648  0.6556500490972659  0.6107482400280444  1.0000
