data_image0
_chemical_formula_structural       H24C20N6O20Cl4
_chemical_formula_sum              "H24 C20 N6 O20 Cl4"
_cell_length_a       4.846619113724684
_cell_length_b       13.33771034348936
_cell_length_c       14.17892379261848
_cell_angle_alpha    115.1639230121487
_cell_angle_beta     91.49117134767515
_cell_angle_gamma    92.06169837757093

_space_group_name_H-M_alt    "P 1"
_space_group_IT_number       1

loop_
  _space_group_symop_operation_xyz
  'x, y, z'

loop_
  _atom_site_type_symbol
  _atom_site_label
  _atom_site_symmetry_multiplicity
  _atom_site_fract_x
  _atom_site_fract_y
  _atom_site_fract_z
  _atom_site_occupancy
  H   H1        1.0  0.03494295133947111  0.8040635772799692  0.3023929606733748  1.0000
  H   H2        1.0  0.9650570479375875  0.19593642264993627  0.6976070391263807  1.0000
  H   H3        1.0  0.25352490405089273  0.9285198880939105  0.30096099223805006  1.0000
  H   H4        1.0  0.7464750952261658  0.07148011183599513  0.6990390075617057  1.0000
  H   H5        1.0  0.962703700162353  0.9071164979328789  0.23417743708539615  1.0000
  H   H6        1.0  0.03729630117834137  0.09288350199775394  0.7658225627182714  1.0000
  H   H7        1.0  0.7924606021174522  0.8388301398091266  0.03841606770417339  1.0000
  H   H8        1.0  0.20753939715960654  0.16116986012077922  0.9615839320955821  1.0000
  H   H9        1.0  0.738241293746302  0.9709850431317086  0.037494366162382886  1.0000
  H   H10       1.0  0.26175870553075664  0.029014956798196923  0.9625056336373726  1.0000
  H   H11       1.0  0.453282615673237  0.8917327805868995  0.056282160286214994  1.0000
  H   H12       1.0  0.5467173836038216  0.10826721934300622  0.9437178395135407  1.0000
  H   H13       1.0  0.378439839419381  0.04861959758618913  0.21495175010137968  1.0000
  H   H14       1.0  0.6215601620050283  0.9513804026948565  0.7850482504823089  1.0000
  H   H15       1.0  0.6801774466055112  0.12938032005472722  0.2160977263210791  1.0000
  H   H16       1.0  0.31982255267154736  0.8706196798751784  0.7839022734786765  1.0000
  H   H17       1.0  0.8720019848653808  0.1052469074522498  0.37330092329176795  1.0000
  H   H18       1.0  0.1279980144116777  0.894753092477656  0.6266990765079876  1.0000
  H   H19       1.0  0.5692488772928801  0.1829155376157637  0.39490242691161404  1.0000
  H   H20       1.0  0.4307511240478143  0.8170844623148691  0.6050975728920536  1.0000
  H   H21       1.0  0.473650679815057  0.12633473028075007  0.5406708185559838  1.0000
  H   H22       1.0  0.5263493215256375  0.8736652696498827  0.45932918124768385  1.0000
  H   H23       1.0  0.7888678756143173  0.056275561863384664  0.5077407260627139  1.0000
  H   H24       1.0  0.21113212581009216  0.9437244384176611  0.4922592745209747  1.0000
  C   C1        1.0  0.994776733744985  0.6497597688445963  0.3034064102086894  1.0000
  C   C2        1.0  0.005223265532073548  0.3502402310853095  0.6965935895910662  1.0000
  C   C3        1.0  0.13693403361909026  0.587514090309071  0.21251019510946145  1.0000
  C   C4        1.0  0.8630659677216042  0.4124859096215617  0.7874898046942063  1.0000
  C   C5        1.0  0.1579602872038542  0.4728951977488813  0.17392537422529503  1.0000
  C   C6        1.0  0.8420397121569192  0.5271048025314374  0.8260746263544814  1.0000
  C   C7        1.0  0.02463677307987929  0.41595990685236967  0.2241936589174152  1.0000
  C   C8        1.0  0.9753632261971792  0.584040093077536  0.7758063408823405  1.0000
  C   C9        1.0  0.876760253792116  0.47241148163877733  0.31315333582070287  1.0000
  C   C10       1.0  0.12323974548494268  0.5275885182911283  0.6868466639790527  1.0000
  C   C11       1.0  0.8631492487876429  0.5869173333900134  0.35013187289080067  1.0000
  C   C12       1.0  0.13685075255305157  0.41308266654061937  0.6498681269128671  1.0000
  C   C13       1.0  0.6762505061188434  0.9140823757446485  0.07214822889070832  1.0000
  C   C14       1.0  0.32374949324193014  0.08591762453567003  0.9278517716890681  1.0000
  C   C15       1.0  0.6014678754944356  0.06328897314226806  0.2371212336891738  1.0000
  C   C16       1.0  0.398532123782623  0.9367110267876375  0.7628787661105818  1.0000
  C   C17       1.0  0.6493412252997607  0.10002276424743352  0.35252334708238753  1.0000
  C   C18       1.0  0.3506587760409338  0.8999772356831991  0.6474766527212801  1.0000
  C   C19       1.0  0.5636102904854755  0.04732224935532702  0.49031928844844835  1.0000
  C   C20       1.0  0.4363897087915831  0.9526777505745785  0.5096807113513072  1.0000
  N   N1        1.0  0.28565823598223183  0.6450873855376174  0.15887510110639297  1.0000
  N   N2        1.0  0.7143417632948267  0.3549126143922883  0.8411248986933626  1.0000
  N   N3        1.0  0.03826120683039154  0.29416126239332663  0.18263142707273103  1.0000
  N   N4        1.0  0.9617387945940177  0.7058387378877191  0.8173685735109576  1.0000
  N   N5        1.0  0.7121272387583305  0.6477154747823624  0.4440932866313001  1.0000
  N   N6        1.0  0.28787276060244305  0.35228452549795614  0.5559067139484763  1.0000
  O   O1        1.0  0.9761579980623988  0.7577556772513734  0.34680450793030715  1.0000
  O   O2        1.0  0.023842003278295634  0.24224432267925922  0.6531954918733605  1.0000
  O   O3        1.0  0.505136011379876  0.6963541827156671  0.20131494912013448  1.0000
  O   O4        1.0  0.4948639878971827  0.30364581721423856  0.7986850506796211  1.0000
  O   O5        1.0  0.18179020924505399  0.6367723133891044  0.07534160905524515  1.0000
  O   O6        1.0  0.8182097901157196  0.36322768689121415  0.9246583915245313  1.0000
  O   O7        1.0  0.8638514876236777  0.23809335802214243  0.11305530875944722  1.0000
  O   O8        1.0  0.13614851165338077  0.7619066419077632  0.8869446910403085  1.0000
  O   O9        1.0  0.21855716209904633  0.2570320511744943  0.22008533972494562  1.0000
  O   O10       1.0  0.7814428371780122  0.7429679487554114  0.77991466007481  1.0000
  O   O11       1.0  0.45803214370355616  0.6296016951229081  0.4377724667221751  1.0000
  O   O12       1.0  0.5419678576371383  0.3703983048077246  0.5622275330814925  1.0000
  O   O13       1.0  0.84608623964359  0.712910417164271  0.5230361054324596  1.0000
  O   O14       1.0  0.1539137616971044  0.2870895827663617  0.47696389437120806  1.0000
  O   O15       1.0  0.11196040924613435  0.8709214999405355  0.2563944341816415  1.0000
  O   O16       1.0  0.8880395900309244  0.1290784999893702  0.7436055656181141  1.0000
  O   O17       1.0  0.7420379696475333  0.9637938074829295  0.18191636894178395  1.0000
  O   O18       1.0  0.2579620296295253  0.03620619244697623  0.8180836308579716  1.0000
  O   O19       1.0  0.5103327274718483  0.021812853347399755  0.3826235406037748  1.0000
  O   O20       1.0  0.489667273868846  0.9781871465832329  0.6173764591998928  1.0000
  Cl  Cl1       1.0  0.3626746474893572  0.40439240544455946  0.07214377338461124  1.0000
  Cl  Cl2       1.0  0.6373253517877013  0.5956075944853463  0.9278562264151444  1.0000
  Cl  Cl3       1.0  0.7322687043086258  0.40400857805890933  0.3792257719740928  1.0000
  Cl  Cl4       1.0  0.26773129496843284  0.5959914218709964  0.6207742278256629  1.0000
