data_image0
_chemical_formula_structural       H52C76N8O20Cl4
_chemical_formula_sum              "H52 C76 N8 O20 Cl4"
_cell_length_a       14.992680848004241
_cell_length_b       7.864961939887597
_cell_length_c       14.580978891806293
_cell_angle_alpha    90.0
_cell_angle_beta     99.32720833634843
_cell_angle_gamma    90.0

_space_group_name_H-M_alt    "P 1"
_space_group_IT_number       1

loop_
  _space_group_symop_operation_xyz
  'x, y, z'

loop_
  _atom_site_type_symbol
  _atom_site_label
  _atom_site_symmetry_multiplicity
  _atom_site_fract_x
  _atom_site_fract_y
  _atom_site_fract_z
  _atom_site_occupancy
  H   H1        1.0  0.04538870764983291  0.28641689905395706  0.12508163054217677  1.0000
  H   H2        1.0  0.9546112925882898  0.7864168990611028  0.3749183689643352  1.0000
  H   H3        1.0  0.9546112922238261  0.7135831009603346  0.8749183691977115  1.0000
  H   H4        1.0  0.04538870728536914  0.21358310095318878  0.6250816307755531  1.0000
  H   H5        1.0  0.9461421107148376  0.527916660212006  0.15940020487580941  1.0000
  H   H6        1.0  0.05385788962571589  0.02791666020486018  0.3405997953256771  1.0000
  H   H7        1.0  0.053857889261252116  0.4720833398022856  0.8405997955590534  1.0000
  H   H8        1.0  0.9461421102479431  0.9720833398094314  0.6594002044142112  1.0000
  H   H9        1.0  0.7923985065222998  0.4664712656006105  0.1933968312207643  1.0000
  H   H10       1.0  0.20760149371582304  0.9664712656077563  0.3066031682857478  1.0000
  H   H11       1.0  0.20760149401948164  0.5335287344136811  0.8066031685265355  1.0000
  H   H12       1.0  0.7923985061578359  0.03352873440653531  0.6933968314541405  1.0000
  H   H13       1.0  0.1282074550186362  0.8997775900363909  0.08494632193642426  1.0000
  H   H14       1.0  0.8717925452194866  0.3997775900292451  0.4150536775700878  1.0000
  H   H15       1.0  0.8717925455231452  0.1002224099779007  0.9150536778108755  1.0000
  H   H16       1.0  0.12820745465417244  0.6002224099850465  0.5849463221698006  1.0000
  H   H17       1.0  0.3058653367356127  0.3183398253082687  0.19663963400985526  1.0000
  H   H18       1.0  0.6941346628343876  0.8183398253154146  0.30336036548924533  1.0000
  H   H19       1.0  0.6941346631380464  0.6816601747060229  0.8033603657300332  1.0000
  H   H20       1.0  0.3058653370392713  0.18166017469887707  0.696639634250643  1.0000
  H   H21       1.0  0.351685722612506  0.09543586043224098  0.31442271880444594  1.0000
  H   H22       1.0  0.6483142777280474  0.5954358604393868  0.18557728139704052  1.0000
  H   H23       1.0  0.6483142772611531  0.9045641395820506  0.6855772809354425  1.0000
  H   H24       1.0  0.3516857229161646  0.40456413957490484  0.8144227190452337  1.0000
  H   H25       1.0  0.46592071240089666  0.8811423695330741  0.2899109897776678  1.0000
  H   H26       1.0  0.5340792872715343  0.3811423695259283  0.2100890104164072  1.0000
  H   H27       1.0  0.534079287575193  0.11885763048121756  0.7100890106571949  1.0000
  H   H28       1.0  0.46592071270455526  0.6188576304883634  0.7899109900184555  1.0000
  H   H29       1.0  0.5368683733884074  0.8882983215173509  0.14680865119481523  1.0000
  H   H30       1.0  0.46313162695214577  0.38829832151020505  0.3531913490066712  1.0000
  H   H31       1.0  0.46313162648525147  0.11170167849694078  0.8531913485450731  1.0000
  H   H32       1.0  0.5368683730239437  0.6117016785040865  0.6468086514281916  1.0000
  H   H33       1.0  0.4925358730187356  0.11848982450553583  0.02925413824992963  1.0000
  H   H34       1.0  0.5074641265512648  0.6184898245126816  0.470745861249171  1.0000
  H   H35       1.0  0.5074641268549235  0.8815101755087558  0.9707458614899588  1.0000
  H   H36       1.0  0.49253587332239424  0.38151017550161  0.5292541384907173  1.0000
  H   H37       1.0  0.19401896099553864  0.33481575627785354  0.05909300719609414  1.0000
  H   H38       1.0  0.8059810393450147  0.8348157562849994  0.4409069930053923  1.0000
  H   H39       1.0  0.8059810388781204  0.665184243736438  0.9409069925437943  1.0000
  H   H40       1.0  0.19401896129919727  0.16518424372929225  0.5590930074368818  1.0000
  H   H41       1.0  0.0920859259509917  0.5820522419547047  0.08069760235284454  1.0000
  H   H42       1.0  0.9079140736190087  0.08205224194755899  0.4193023971462561  1.0000
  H   H43       1.0  0.9079140739226673  0.41794775805958684  0.9193023973870438  1.0000
  H   H44       1.0  0.09208592625465034  0.9179477580667327  0.5806976025936323  1.0000
  H   H45       1.0  0.29260159375892797  0.9313671313334656  0.057353739578883046  1.0000
  H   H46       1.0  0.7073984064791949  0.4313671313263198  0.442646259927629  1.0000
  H   H47       1.0  0.7073984061147311  0.068632868680826  0.9426462601610054  1.0000
  H   H48       1.0  0.2926015933944641  0.5686328686879718  0.5573537398122593  1.0000
  H   H49       1.0  0.4036659646396195  0.6998632062138964  0.03348470626823973  1.0000
  H   H50       1.0  0.5963340355985033  0.1998632062067506  0.4665152932382724  1.0000
  H   H51       1.0  0.5963340352340396  0.3001367938003952  0.9665152934716487  1.0000
  H   H52       1.0  0.40366596494327817  0.8001367938075411  0.5334847065090276  1.0000
  C   C1        1.0  0.8042350839825598  0.19598327007568828  0.1754108243776646  1.0000
  C   C2        1.0  0.19576491558744066  0.6959832700828341  0.32458917512143604  1.0000
  C   C3        1.0  0.1957649158910993  0.8040167299386033  0.8245891753622238  1.0000
  C   C4        1.0  0.8042350842862184  0.30401672993145756  0.6754108246184524  1.0000
  C   C5        1.0  0.8600275214398043  0.06350227169785107  0.1550405885617294  1.0000
  C   C6        1.0  0.1399724787983185  0.5635022717049969  0.3449594109447827  1.0000
  C   C7        1.0  0.1399724791019771  0.9364977283164405  0.8449594111855704  1.0000
  C   C8        1.0  0.8600275210753405  0.4364977283092948  0.6550405887951056  1.0000
  C   C9        1.0  0.9472450543059217  0.09516239947763773  0.13662045752361812  1.0000
  C   C10       1.0  0.052754946034631746  0.5951623994847834  0.36337954267786826  1.0000
  C   C11       1.0  0.05275494623585986  0.904837600536654  0.8633795422236817  1.0000
  C   C12       1.0  0.9472450539414579  0.4048376005295081  0.6366204577569945  1.0000
  C   C13       1.0  0.9773670442016903  0.2637482833171404  0.13892808537682735  1.0000
  C   C14       1.0  0.02263295547074069  0.7637482833242862  0.3610719148172476  1.0000
  C   C15       1.0  0.022632955774399322  0.7362517166971513  0.8610719150580355  1.0000
  C   C16       1.0  0.9773670444029183  0.23625171669000541  0.6389280849226406  1.0000
  C   C17       1.0  0.9223649722490634  0.39681970667547867  0.1588665993386255  1.0000
  C   C18       1.0  0.07763502809148982  0.8968197066826246  0.341133400862861  1.0000
  C   C19       1.0  0.07763502829271791  0.6031802920673509  0.8411334004086742  1.0000
  C   C20       1.0  0.9223649718845999  0.10318029333166713  0.6588665995720019  1.0000
  C   C21       1.0  0.8357477502775473  0.36323739540446254  0.17752241377904848  1.0000
  C   C22       1.0  0.1642522493948837  0.8632373954116084  0.3224775864150265  1.0000
  C   C23       1.0  0.16425224959611182  0.6367626046098291  0.8224775859608399  1.0000
  C   C24       1.0  0.8357477505812058  0.13676260460268325  0.6775224140198361  1.0000
  C   C25       1.0  0.006934699904386175  0.9532105924097001  0.11478422231745193  1.0000
  C   C26       1.0  0.9930653004361671  0.45321059240255424  0.3852157778840345  1.0000
  C   C27       1.0  0.9930652999692728  0.04678940760459157  0.8852157774224365  1.0000
  C   C28       1.0  0.006934699539922393  0.5467894076117373  0.6147842225508282  1.0000
  C   C29       1.0  0.3553208881897525  0.22353254770170264  0.1843626996814411  1.0000
  C   C30       1.0  0.644679111380248  0.7235325477088485  0.31563729981765953  1.0000
  C   C31       1.0  0.6446791116839066  0.776467452312589  0.8156373000584474  1.0000
  C   C32       1.0  0.3553208884934111  0.2764674523054432  0.6843626999222289  1.0000
  C   C33       1.0  0.38069472015794587  0.09790287046335085  0.25073012897113217  1.0000
  C   C34       1.0  0.6193052801826076  0.5979028704704966  0.2492698712303543  1.0000
  C   C35       1.0  0.6193052798181438  0.9020971295509408  0.7492698714637305  1.0000
  C   C36       1.0  0.38069471969105156  0.40209712954379495  0.7507301285095341  1.0000
  C   C37       1.0  0.4459586997253292  0.9780598887564276  0.2373235331435043  1.0000
  C   C38       1.0  0.554041300615224  0.47805988874928174  0.26267646705798214  1.0000
  C   C39       1.0  0.5540413001483299  0.02194011125786403  0.762676466596384  1.0000
  C   C40       1.0  0.4459586993608654  0.5219401112650098  0.7373235333768806  1.0000
  C   C41       1.0  0.48622459651564437  0.9827844469022907  0.15719118534451104  1.0000
  C   C42       1.0  0.5137754031567866  0.482784446895145  0.34280881484956394  1.0000
  C   C43       1.0  0.5137754033580146  0.01721555311200083  0.8428088143953772  1.0000
  C   C44       1.0  0.48622459681930297  0.5172155531191467  0.6571911855852988  1.0000
  C   C45       1.0  0.46114839661490864  0.10854530594361667  0.09115003515753789  1.0000
  C   C46       1.0  0.5388516037256447  0.6085453059507625  0.40884996504394855  1.0000
  C   C47       1.0  0.5388516032587504  0.8914546940706749  0.9088499645823505  1.0000
  C   C48       1.0  0.46114839691856724  0.3914546940635292  0.5911500353983256  1.0000
  C   C49       1.0  0.3952376004818129  0.22951587608392143  0.10364688904918978  1.0000
  C   C50       1.0  0.6047623998587405  0.7295158760910672  0.3963531111522966  1.0000
  C   C51       1.0  0.6047623994942767  0.7704841239303702  0.8963531113856729  1.0000
  C   C52       1.0  0.3952376000149186  0.2704841239232244  0.6036468885875917  1.0000
  C   C53       1.0  0.3755896012772613  0.36626734522267373  0.0333719347815582  1.0000
  C   C54       1.0  0.6244103983951697  0.8662673452298195  0.4666280654125168  1.0000
  C   C55       1.0  0.6244103986988283  0.6337326547916179  0.9666280656533046  1.0000
  C   C56       1.0  0.3755896014784894  0.1337326547844721  0.5333719343273715  1.0000
  C   C57       1.0  0.3075629690724301  0.5003199583259824  0.04624182262496347  1.0000
  C   C58       1.0  0.6924370306000008  0.0003199583188365644  0.4537581775691115  1.0000
  C   C59       1.0  0.6924370309036595  0.49968004168830926  0.9537581778098992  1.0000
  C   C60       1.0  0.30756296927365817  0.999680041695455  0.5462418221707769  1.0000
  C   C61       1.0  0.21897405884612708  0.46473744920019766  0.05934293566738297  1.0000
  C   C62       1.0  0.7810259414944263  0.9647374492073434  0.44065706453410347  1.0000
  C   C63       1.0  0.781025941027532  0.535262550814094  0.9406570640725054  1.0000
  C   C64       1.0  0.21897405848166332  0.035262550806948165  0.5593429359007592  1.0000
  C   C65       1.0  0.1620241269527979  0.6000636666866629  0.0706726588144424  1.0000
  C   C66       1.0  0.837975873285325  0.10006366667951702  0.4293273406920697  1.0000
  C   C67       1.0  0.8379758729208612  0.3999363333276288  0.929327340925446  1.0000
  C   C68       1.0  0.1620241265883341  0.8999363333347746  0.5706726590478187  1.0000
  C   C69       1.0  0.27436044985182384  0.7972493647044417  0.05747928279761862  1.0000
  C   C70       1.0  0.7256395498206071  0.2972493646972959  0.4425207173964563  1.0000
  C   C71       1.0  0.7256395501242657  0.2027506353098499  0.9425207176372441  1.0000
  C   C72       1.0  0.27436045015548244  0.7027506353169958  0.5574792830384064  1.0000
  C   C73       1.0  0.3351863611221598  0.6699951977231449  0.04409206226267831  1.0000
  C   C74       1.0  0.6648136391159629  0.16999519771599914  0.45590793724383377  1.0000
  C   C75       1.0  0.6648136387514992  0.3300048022911467  0.9559079374772101  1.0000
  C   C76       1.0  0.33518636075769603  0.8300048022982925  0.5440920624960546  1.0000
  N   N1        1.0  0.8215284475005025  0.8900937936516002  0.1504396414776975  1.0000
  N   N2        1.0  0.1784715528400509  0.3900937936444544  0.34956035872378893  1.0000
  N   N3        1.0  0.17847155247558713  0.10990620636269142  0.8495603589571653  1.0000
  N   N4        1.0  0.8215284470336082  0.6099062063698372  0.6504396410160994  1.0000
  N   N5        1.0  0.18969580588830298  0.762320304386074  0.07050031207709591  1.0000
  N   N6        1.0  0.8103041944522504  0.2623203043789282  0.42949968812439054  1.0000
  N   N7        1.0  0.8103041946534786  0.2376796956282176  0.929499687670204  1.0000
  N   N8        1.0  0.18969580552383922  0.7376796956353634  0.5705003123104722  1.0000
  O   O1        1.0  0.8281491342599733  0.8085044414202058  0.2236987033803045  1.0000
  O   O2        1.0  0.17185086541245767  0.30850444141306  0.27630129681377047  1.0000
  O   O3        1.0  0.17185086561368576  0.19149555859408582  0.7763012963595839  1.0000
  O   O4        1.0  0.8281491345636318  0.6914955586012317  0.7236987036210922  1.0000
  O   O5        1.0  0.7788223387140377  0.8446346200748353  0.0746892716175853  1.0000
  O   O6        1.0  0.22117766095839317  0.34463462006768947  0.42531072857648966  1.0000
  O   O7        1.0  0.2211776612620518  0.15536537993945634  0.9253107288172774  1.0000
  O   O8        1.0  0.7788223389152659  0.6553653799466022  0.5746892711633987  1.0000
  O   O9        1.0  0.9827915556957498  0.8026733871378686  0.11424825169131769  1.0000
  O   O10       1.0  0.01720844464480352  0.30267338713072295  0.3857517485101687  1.0000
  O   O11       1.0  0.01720844428033974  0.1973266128764229  0.885751748743545  1.0000
  O   O12       1.0  0.9827915552288555  0.6973266128835688  0.6142482512297196  1.0000
  O   O13       1.0  0.08571634159226943  0.007097319787004304  0.0972912138439131  1.0000
  O   O14       1.0  0.9142836586458534  0.5070973197941501  0.40270878566259893  1.0000
  O   O15       1.0  0.9142836582813896  0.9929026802272873  0.9027087858959753  1.0000
  O   O16       1.0  0.08571634122780566  0.4929026802201415  0.5972912140772895  1.0000
  O   O17       1.0  0.41751998333432416  0.37893368369467195  0.9673553945214669  1.0000
  O   O18       1.0  0.5824800168429936  0.8789336837018177  0.5326446054592092  1.0000
  O   O19       1.0  0.5824800172074572  0.6210663163196197  0.032644605225832894  1.0000
  O   O20       1.0  0.4175199831330961  0.12106631631247389  0.46735539497565354  1.0000
  Cl  Cl1       1.0  0.6959098207741845  0.15375315090428554  0.19491447773517162  1.0000
  Cl  Cl2       1.0  0.30409017946393835  0.6537531509114314  0.30508552177134046  1.0000
  Cl  Cl3       1.0  0.304090179767597  0.846246849110006  0.8050855220121282  1.0000
  Cl  Cl4       1.0  0.6959098204097207  0.3462468491028603  0.694914477968548  1.0000
