data_image0
_chemical_formula_structural       H56C68N4O12
_chemical_formula_sum              "H56 C68 N4 O12"
_cell_length_a       10.637717302694176
_cell_length_b       11.184051708433342
_cell_length_c       11.36556507840827
_cell_angle_alpha    90.0
_cell_angle_beta     107.83719639620864
_cell_angle_gamma    90.0

_space_group_name_H-M_alt    "P 1"
_space_group_IT_number       1

loop_
  _space_group_symop_operation_xyz
  'x, y, z'

loop_
  _atom_site_type_symbol
  _atom_site_label
  _atom_site_symmetry_multiplicity
  _atom_site_fract_x
  _atom_site_fract_y
  _atom_site_fract_z
  _atom_site_occupancy
  H   H1        1.0  0.7541961006707514  0.2385242021000711  0.05455641104807759  1.0000
  H   H2        1.0  0.24580389974218844  0.7385242026171761  0.44544358891969316  1.0000
  H   H3        1.0  0.24580389992601162  0.7614757971458782  0.9454435888195851  1.0000
  H   H4        1.0  0.7541960999156473  0.2614757975229035  0.5545564109513846  1.0000
  H   H5        1.0  0.5675447125016089  0.48388004196361806  0.1993716971830559  1.0000
  H   H6        1.0  0.432455287911331  0.9838800415865927  0.30062830278471486  1.0000
  H   H7        1.0  0.4324552884011162  0.5161199581764616  0.8006283036088806  1.0000
  H   H8        1.0  0.567544712685432  0.016119958553486913  0.6993716970829479  1.0000
  H   H9        1.0  0.9464110469111049  0.4600418876926605  0.3784869512749073  1.0000
  H   H10       1.0  0.05358895350183487  0.9600418882097655  0.12151304869286356  1.0000
  H   H11       1.0  0.053588953685658  0.5399581115532887  0.6215130485927555  1.0000
  H   H12       1.0  0.9464110461560008  0.03995811193031409  0.8784869511782142  1.0000
  H   H13       1.0  0.09758975065376367  0.16834636579695686  0.11862601477736232  1.0000
  H   H14       1.0  0.9024102497591759  0.6683463663140619  0.3813739851904085  1.0000
  H   H15       1.0  0.9024102499429991  0.8316536343431228  0.8813739850903003  1.0000
  H   H16       1.0  0.0975897502046217  0.3316536338260177  0.6186260156049431  1.0000
  H   H17       1.0  0.3293297222188206  0.20279849102358236  0.24493869510308933  1.0000
  H   H18       1.0  0.6706702781941191  0.702798490646557  0.2550613048646815  1.0000
  H   H19       1.0  0.6706702783779422  0.7972015091164972  0.7550613047645734  1.0000
  H   H20       1.0  0.3293297224026437  0.29720150859939226  0.7449386950029812  1.0000
  H   H21       1.0  0.493738007219542  0.30955590963419893  0.4173652072172703  1.0000
  H   H22       1.0  0.5062619931933977  0.8095559092571735  0.08263479275050047  1.0000
  H   H23       1.0  0.5062619933772209  0.6904440905058806  0.5826347926503924  1.0000
  H   H24       1.0  0.49373800646443794  0.19044409088290604  0.9173652071205775  1.0000
  H   H25       1.0  0.4171085692060061  0.4561628283739982  0.5466864490416861  1.0000
  H   H26       1.0  0.5828914306356527  0.9561628288911032  0.9533135507292837  1.0000
  H   H27       1.0  0.5828914304518296  0.5438371717660814  0.4533135508293918  1.0000
  H   H28       1.0  0.4171085690221829  0.04383717124897644  0.046686449141794095  1.0000
  H   H29       1.0  0.18048413462753307  0.49446621261863416  0.5072007671760563  1.0000
  H   H30       1.0  0.8195158652141259  0.9944662122416088  0.9927992325949134  1.0000
  H   H31       1.0  0.8195158650303027  0.5055337875214454  0.4927992326950215  1.0000
  H   H32       1.0  0.18048413444370992  0.0055337870043404465  0.0072007672761644015  1.0000
  H   H33       1.0  0.194168729711842  0.3784648712602317  0.9603248669561826  1.0000
  H   H34       1.0  0.805831270435779  0.8784648717773368  0.5396751337390611  1.0000
  H   H35       1.0  0.8058312708849209  0.6215351288798479  0.039675132911480185  1.0000
  H   H36       1.0  0.19416872952801886  0.12153512836274287  0.4603248670562906  1.0000
  H   H37       1.0  0.44191368883419424  0.3639844446472287  0.03855678521616544  1.0000
  H   H38       1.0  0.5580863106398183  0.8639844451643337  0.4614432147550204  1.0000
  H   H39       1.0  0.5580863111296035  0.6360155554928508  0.9614432155791862  1.0000
  H   H40       1.0  0.4419136890180174  0.13601555497574588  0.5385567851160573  1.0000
  H   H41       1.0  0.4676295691267863  0.6378482973769521  0.28973976750001346  1.0000
  H   H42       1.0  0.5323704312861535  0.1378482977539775  0.21026023246775738  1.0000
  H   H43       1.0  0.5323704305310494  0.36215170276312747  0.7102602323710645  1.0000
  H   H44       1.0  0.46762956931060934  0.8621517023861021  0.7897397673999053  1.0000
  H   H45       1.0  0.2229089681815109  0.6601775002911062  0.22700694439527408  1.0000
  H   H46       1.0  0.777091032231429  0.16017750066813158  0.2729930555724967  1.0000
  H   H47       1.0  0.7770910324152519  0.3398224998489734  0.7729930554723885  1.0000
  H   H48       1.0  0.22290896836533403  0.8398224994719481  0.727006944295166  1.0000
  H   H49       1.0  0.0196422998037155  0.6324141164929196  0.03913514187938534  1.0000
  H   H50       1.0  0.9803577006092243  0.1324141159758146  0.4608648580883854  1.0000
  H   H51       1.0  0.9803577010990095  0.36758588364716  0.9608648589125512  1.0000
  H   H52       1.0  0.019642299048611415  0.8675858841642651  0.5391351417826924  1.0000
  H   H53       1.0  0.011436413407026808  0.5140517220306506  0.13766112681002077  1.0000
  H   H54       1.0  0.9885635870059131  0.01405172151354567  0.36233887315775  1.0000
  H   H55       1.0  0.9885635862508089  0.4859482781094289  0.862338873061057  1.0000
  H   H56       1.0  0.011436413590849927  0.9859482777324036  0.6376611267099127  1.0000
  C   C1        1.0  0.9808192710701664  0.395911705832077  0.32316739744566003  1.0000
  C   C2        1.0  0.019180729342773338  0.895911706349182  0.17683260252211072  1.0000
  C   C3        1.0  0.019180728587669227  0.6040882943080025  0.6768326024254178  1.0000
  C   C4        1.0  0.9808192715599516  0.1040882937908976  0.8231673982698259  1.0000
  C   C5        1.0  0.8883508856149764  0.34265999388309615  0.22379522267783208  1.0000
  C   C6        1.0  0.11164911385903617  0.8426599935060708  0.2762047772933538  1.0000
  C   C7        1.0  0.1116491140428593  0.6573400062569834  0.7762047771932458  1.0000
  C   C8        1.0  0.8883508857987994  0.15734000663400882  0.723795222577724  1.0000
  C   C9        1.0  0.932029576876502  0.2576061981032794  0.14949164332070408  1.0000
  C   C10       1.0  0.06797042353643788  0.757606197726254  0.3505083566470667  1.0000
  C   C11       1.0  0.06797042372026103  0.7423938020368003  0.8505083565469587  1.0000
  C   C12       1.0  0.9320295761213978  0.24239380241382558  0.6494916432240112  1.0000
  C   C13       1.0  0.06542240947471455  0.23145873583971624  0.17661149951065824  1.0000
  C   C14       1.0  0.9345775909382253  0.7314587363568212  0.32338850045711254  1.0000
  C   C15       1.0  0.934577590183121  0.7685412634062331  0.8233885003604196  1.0000
  C   C16       1.0  0.06542240965853768  0.26854126378325843  0.6766114994105502  1.0000
  C   C17       1.0  0.16008640094816295  0.2878497313788763  0.2761523658868639  1.0000
  C   C18       1.0  0.8399135985258496  0.7878497310018509  0.22384763408432196  1.0000
  C   C19       1.0  0.8399135987096727  0.7121502687612032  0.7238476339842139  1.0000
  C   C20       1.0  0.16008640143794822  0.21215026913822868  0.7761523667110297  1.0000
  C   C21       1.0  0.2979119220205449  0.2667968440945253  0.3026016584280544  1.0000
  C   C22       1.0  0.7020880774534677  0.7667968437175  0.19739834154313143  1.0000
  C   C23       1.0  0.7020880776372906  0.7332031560455543  0.6973983414430234  1.0000
  C   C24       1.0  0.2979119222043681  0.2332031555284493  0.8026016583279465  1.0000
  C   C25       1.0  0.38833212143744805  0.3261498842364495  0.39806345763453727  1.0000
  C   C26       1.0  0.6116678789754917  0.8261498838594241  0.10193654233323346  1.0000
  C   C27       1.0  0.611667879465277  0.6738501159036301  0.6019365431573992  1.0000
  C   C28       1.0  0.38833212068234396  0.17385011628065547  0.8980634575378443  1.0000
  C   C29       1.0  0.7451874878297936  0.37452624676632096  0.19195813792998773  1.0000
  C   C30       1.0  0.2548125116442189  0.874526247283426  0.30804186204119816  1.0000
  C   C31       1.0  0.254812511828042  0.6254737533737585  0.80804186194109  1.0000
  C   C32       1.0  0.7451874880136167  0.12547375285665363  0.6919581378298796  1.0000
  C   C33       1.0  0.3452580335801284  0.40799190659671797  0.4729515487821732  1.0000
  C   C34       1.0  0.6547419658938841  0.9079919071138229  0.027048451189012657  1.0000
  C   C35       1.0  0.6547419660777073  0.5920080935433617  0.5270484510889045  1.0000
  C   C36       1.0  0.3452580337639516  0.09200809302625668  0.9729515486820651  1.0000
  C   C37       1.0  0.21254998278110318  0.42950553388248663  0.4510067986086466  1.0000
  C   C38       1.0  0.7874500166929094  0.9295055335054613  0.048993201362539276  1.0000
  C   C39       1.0  0.7874500168767326  0.5704944662575929  0.5489932012624312  1.0000
  C   C40       1.0  0.21254998296492628  0.0704944666346183  0.9510067985085385  1.0000
  C   C41       1.0  0.11718386189944685  0.37145097396746  0.3521819240323647  1.0000
  C   C42       1.0  0.8828161385134929  0.871450974484565  0.14781807593540608  1.0000
  C   C43       1.0  0.882816138697316  0.6285490252784893  0.6478180758352979  1.0000
  C   C44       1.0  0.11718386114434282  0.12854902565551463  0.8521819239356718  1.0000
  C   C45       1.0  0.18706935696251786  0.5208404683615308  0.08889908674367344  1.0000
  C   C46       1.0  0.8129306434504219  0.020840467844425753  0.41110091322409736  1.0000
  C   C47       1.0  0.8129306426953179  0.4791595317785489  0.9111009131274045  1.0000
  C   C48       1.0  0.18706935714634101  0.9791595314015235  0.5888990866435654  1.0000
  C   C49       1.0  0.24974791570692115  0.43738377982564164  0.03397237487597563  1.0000
  C   C50       1.0  0.7502520837670915  0.9373837794486162  0.4660276250952103  1.0000
  C   C51       1.0  0.7502520839509145  0.562616220314438  0.9660276249951021  1.0000
  C   C52       1.0  0.24974791589074427  0.06261622069146336  0.5339723747758676  1.0000
  C   C53       1.0  0.3862628774723783  0.4282473851930105  0.07456119584880658  1.0000
  C   C54       1.0  0.6137371220016342  0.928247384815985  0.42543880412237933  1.0000
  C   C55       1.0  0.6137371221854574  0.5717526149470692  0.9254388040222713  1.0000
  C   C56       1.0  0.3862628779621636  0.07175261532409455  0.5745611966729723  1.0000
  C   C57       1.0  0.4026074567224385  0.5823759420826554  0.21803344317779727  1.0000
  C   C58       1.0  0.5973925436905014  0.08237594156555048  0.2819665567899735  1.0000
  C   C59       1.0  0.5973925429353972  0.41762405805742414  0.7819665566932806  1.0000
  C   C60       1.0  0.4026074569062616  0.9176240576803988  0.7180334430776892  1.0000
  C   C61       1.0  0.2672251864349387  0.5940292635620011  0.1821817182266127  1.0000
  C   C62       1.0  0.732774813978001  0.09402926393902658  0.31781828174115806  1.0000
  C   C63       1.0  0.7327748141618242  0.40597073657807836  0.8178182816410501  1.0000
  C   C64       1.0  0.26722518598579675  0.905970736201053  0.6821817190541936  1.0000
  C   C65       1.0  0.04033992234175777  0.5363331211600997  0.0550852061503588  1.0000
  C   C66       1.0  0.9596600783771442  0.03633312153712508  0.44491479474168577  1.0000
  C   C67       1.0  0.95966007762204  0.46366687897997994  0.9449147946449928  1.0000
  C   C68       1.0  0.04033992252558087  0.9636668786029545  0.5550852060502507  1.0000
  N   N1        1.0  0.4594862906893001  0.49959764454475136  0.16468172002224207  1.0000
  N   N2        1.0  0.5405137097236397  0.999597644167726  0.3353182799455287  1.0000
  N   N3        1.0  0.5405137099074628  0.5004023555953283  0.8353182798454205  1.0000
  N   N4        1.0  0.45948629087312326  0.00040235597235363226  0.664681719922134  1.0000
  O   O1        1.0  0.843847002755922  0.20544192390200036  0.05168795686617273  1.0000
  O   O2        1.0  0.15615299765701787  0.7054419235249749  0.44831204310159806  1.0000
  O   O3        1.0  0.156152997840841  0.7945580762380792  0.94831204300149  1.0000
  O   O4        1.0  0.8438470020008179  0.29455807661510464  0.5516879567694798  1.0000
  O   O5        1.0  0.7112122058400372  0.4586544191432887  0.2514535855315985  1.0000
  O   O6        1.0  0.28878779457290255  0.9586544196603937  0.24854641443617223  1.0000
  O   O7        1.0  0.28878779381779845  0.541345580996791  0.7485464143394793  1.0000
  O   O8        1.0  0.7112122060238604  0.04134558047968596  0.7514535854314904  1.0000
  O   O9        1.0  0.6633590613763688  0.3149044498197646  0.1049578754156504  1.0000
  O   O10       1.0  0.3366409380976438  0.8149044494427392  0.39504212455553545  1.0000
  O   O11       1.0  0.3366409382814669  0.685095550320315  0.8950421244554274  1.0000
  O   O12       1.0  0.663359061560192  0.18509555069734038  0.6049578753155423  1.0000
