data_image0
_chemical_formula_structural       H30C32N4O8
_chemical_formula_sum              "H30 C32 N4 O8"
_cell_length_a       6.1746849600297296
_cell_length_b       6.883127690254171
_cell_length_c       17.331496110049482
_cell_angle_alpha    92.54079095770496
_cell_angle_beta     99.90380605916064
_cell_angle_gamma    106.98169814695503

_space_group_name_H-M_alt    "P 1"
_space_group_IT_number       1

loop_
  _space_group_symop_operation_xyz
  'x, y, z'

loop_
  _atom_site_type_symbol
  _atom_site_label
  _atom_site_symmetry_multiplicity
  _atom_site_fract_x
  _atom_site_fract_y
  _atom_site_fract_z
  _atom_site_occupancy
  H   H1        1.0  0.20266128138438505  0.6206766934064817  0.08524133785089073  1.0000
  H   H2        1.0  0.7973387182964742  0.37932330657446023  0.9147586619201014  1.0000
  H   H3        1.0  0.1527369521688555  0.936140849171445  0.060744432134744474  1.0000
  H   H4        1.0  0.8472630475120037  0.0638591508094967  0.9392555676362476  1.0000
  H   H5        1.0  0.6755879715654808  0.7226759649082857  0.9825589388960113  1.0000
  H   H6        1.0  0.3244120300691095  0.2773240352214063  0.017441061462961777  1.0000
  H   H7        1.0  0.17919545161442346  0.6752135779726967  0.48928610069904155  1.0000
  H   H8        1.0  0.8208045480664358  0.32478642200824515  0.5107138990719506  1.0000
  H   H9        1.0  0.9012529313661692  0.6022591310620738  0.4285605348152458  1.0000
  H   H10       1.0  0.09874706831468974  0.39774086891886784  0.5714394649557462  1.0000
  H   H11       1.0  0.34260074064832596  0.7027768614772286  0.2401290335223068  1.0000
  H   H12       1.0  0.6573992593676629  0.2972231386542232  0.7598709668373693  1.0000
  H   H13       1.0  0.7341297055798914  0.5256424611341672  0.07483511852981897  1.0000
  H   H14       1.0  0.26587029410096796  0.47435753884677456  0.9251648812411732  1.0000
  H   H15       1.0  0.49698776469807415  0.4840852383762774  0.17878303055880043  1.0000
  H   H16       1.0  0.5030122366013865  0.5159147616029045  0.8212169692114886  1.0000
  H   H17       1.0  0.6947889041826075  0.5512049587067523  0.32054334227990156  1.0000
  H   H18       1.0  0.3052110950013973  0.4487950397548552  0.6794566574900318  1.0000
  H   H19       1.0  0.553461516782228  0.7725823306829558  0.4563323607738317  1.0000
  H   H20       1.0  0.44653848289863124  0.2274176692979861  0.5436676389971604  1.0000
  H   H21       1.0  0.08254425357652903  0.9161550668438325  0.5778126112117389  1.0000
  H   H22       1.0  0.9174557464394599  0.08384493328761933  0.4221873891479373  1.0000
  H   H23       1.0  0.390861444309841  0.0031385510966060125  0.6959539246165493  1.0000
  H   H24       1.0  0.6091385553710181  0.9968614488843358  0.3040460751544429  1.0000
  H   H25       1.0  0.2926165922117222  0.9643264696977778  0.8299689582404521  1.0000
  H   H26       1.0  0.707383407469137  0.035673530283164  0.17003104153054  1.0000
  H   H27       1.0  0.8807758612726215  0.8406401790094268  0.8429908136517531  1.0000
  H   H28       1.0  0.11922413874336729  0.15935982112202499  0.15700918670792302  1.0000
  H   H29       1.0  0.5704641527685066  0.7532974681097553  0.7229537326429516  1.0000
  H   H30       1.0  0.4295358472474823  0.2467025320216965  0.2770462677167245  1.0000
  C   C1        1.0  0.4053495551682141  0.8069951041733755  0.025854366685412675  1.0000
  C   C2        1.0  0.5946504448477749  0.19300489595807643  0.9741456336742635  1.0000
  C   C3        1.0  0.30610654387335096  0.9640301772255174  0.034602753258505724  1.0000
  C   C4        1.0  0.6938934577612395  0.035969822904174546  0.9653972471004676  1.0000
  C   C5        1.0  0.5998468599368478  0.8450420162380164  0.9905542852981336  1.0000
  C   C6        1.0  0.40015313974401123  0.15495798374292524  0.009445714472858404  1.0000
  C   C7        1.0  0.03752282803899403  0.6327790378439989  0.29141578875809165  1.0000
  C   C8        1.0  0.9624771716418652  0.36722096213694283  0.7085842110129004  1.0000
  C   C9        1.0  0.1545404255215449  0.654172748958643  0.22847881509219667  1.0000
  C   C10       1.0  0.8454595741593143  0.34582725102229883  0.7715211846787955  1.0000
  C   C11       1.0  0.8148835546732477  0.5559062969284161  0.13687716829752944  1.0000
  C   C12       1.0  0.18511644534274113  0.44409370320303565  0.8631228320621467  1.0000
  C   C13       1.0  0.6841102902609913  0.5322704122454192  0.1956141721186324  1.0000
  C   C14       1.0  0.31588970941986777  0.46772958773552253  0.8043858276523597  1.0000
  C   C15       1.0  0.7959715573496049  0.5708145232298008  0.2741165708183434  1.0000
  C   C16       1.0  0.20402844233125428  0.42918547675114105  0.7258834289526488  1.0000
  C   C17       1.0  0.17909909914899713  0.6745708327736334  0.37228025939877407  1.0000
  C   C18       1.0  0.820900900531862  0.32542916720730847  0.627719740372218  1.0000
  C   C19       1.0  0.8061007065622108  0.824505552164022  0.6427945630769091  1.0000
  C   C20       1.0  0.19389929345377813  0.17549444796742983  0.35720543728276705  1.0000
  C   C21       1.0  0.038417980900124736  0.8968983843678296  0.6357141407786656  1.0000
  C   C22       1.0  0.9615820207344655  0.10310161576186237  0.3642858595803075  1.0000
  C   C23       1.0  0.2119621476862865  0.9462635876462593  0.7028035958539633  1.0000
  C   C24       1.0  0.7880378523297024  0.05373641248519257  0.29719640450571283  1.0000
  C   C25       1.0  0.15638052267749358  0.9254646767576556  0.777483828708111  1.0000
  C   C26       1.0  0.8436194770033657  0.07453532322328613  0.22251617106288116  1.0000
  C   C27       1.0  0.925084902596687  0.856052240542826  0.7848645485195708  1.0000
  C   C28       1.0  0.07491509708417225  0.14394775943811577  0.21513545125142133  1.0000
  C   C29       1.0  0.7509679447570788  0.8058506931218993  0.7178623600921362  1.0000
  C   C30       1.0  0.24903205687751148  0.1941493070077928  0.2821376402668369  1.0000
  C   C31       1.0  0.617981033333145  0.7681875078746289  0.571985938255455  1.0000
  C   C32       1.0  0.38201896830144527  0.23181249225506323  0.4280140621035182  1.0000
  N   N1        1.0  0.046838150094482334  0.6159061255047023  0.15307419335244954  1.0000
  N   N2        1.0  0.953161849586377  0.38409387447623955  0.8469258064185425  1.0000
  N   N3        1.0  0.07556488150384266  0.651468586381544  0.43416068014494535  1.0000
  N   N4        1.0  0.9244351185121461  0.34853141374990776  0.5658393202147308  1.0000
  O   O1        1.0  0.3181934099210248  0.6178887000581368  0.04953881035865069  1.0000
  O   O2        1.0  0.6818065900949639  0.382111300073315  0.9504611900010254  1.0000
  O   O3        1.0  0.39660271524810614  0.731171474213887  0.37993274814791445  1.0000
  O   O4        1.0  0.6033972844327531  0.2688285257670549  0.6200672516230777  1.0000
  O   O5        1.0  0.411490239795193  0.6872692972495302  0.5755298755669831  1.0000
  O   O6        1.0  0.5885097602207959  0.3127307028819217  0.4244701247926931  1.0000
  O   O7        1.0  0.690102147457643  0.8120140019921178  0.5052810872214588  1.0000
  O   O8        1.0  0.3098978522232163  0.18798599798882404  0.4947189125495334  1.0000
