data_image0
_chemical_formula_structural       H20C20N10O4S2Br2
_chemical_formula_sum              "H20 C20 N10 O4 S2 Br2"
_cell_length_a       9.46902392396021
_cell_length_b       6.822907377589021
_cell_length_c       10.612048146945432
_cell_angle_alpha    90.0
_cell_angle_beta     112.31571224110121
_cell_angle_gamma    90.0

_space_group_name_H-M_alt    "P 1"
_space_group_IT_number       1

loop_
  _space_group_symop_operation_xyz
  'x, y, z'

loop_
  _atom_site_type_symbol
  _atom_site_label
  _atom_site_symmetry_multiplicity
  _atom_site_fract_x
  _atom_site_fract_y
  _atom_site_fract_z
  _atom_site_occupancy
  H   H1        1.0  0.36947649859408266  0.24999999935551592  0.17067627971324814  1.0000
  H   H2        1.0  0.63052350161791  0.7499999995321985  0.8293237201813591  1.0000
  H   H3        1.0  0.49176705379320834  0.24999999935551592  0.7194295727392487  1.0000
  H   H4        1.0  0.5082329464187845  0.7499999995321985  0.28057042715535857  1.0000
  H   H5        1.0  0.6325739971104907  0.24999999935551592  0.3104020182645324  1.0000
  H   H6        1.0  0.36742600310150203  0.7499999995321985  0.6895979816300749  1.0000
  H   H7        1.0  0.8351672599142869  0.24999999935551592  0.5417977748185147  1.0000
  H   H8        1.0  0.16483274029770578  0.7499999995321985  0.4582022250760926  1.0000
  H   H9        1.0  0.3036775879952168  0.9164450232079113  0.9043453683057112  1.0000
  H   H10       1.0  0.6963224122167758  0.4164450230312287  0.09565463158889595  1.0000
  H   H11       1.0  0.6963224122167758  0.08355497714545398  0.09565463158889595  1.0000
  H   H12       1.0  0.3036775879952168  0.5835549773221367  0.9043453683057112  1.0000
  H   H13       1.0  0.15932292314113375  0.05183220003273244  0.773590666420883  1.0000
  H   H14       1.0  0.8406770760170176  0.551832200209415  0.22640933347894046  1.0000
  H   H15       1.0  0.8406770760170176  0.9481678003206329  0.22640933347894046  1.0000
  H   H16       1.0  0.15932292314113375  0.4481678001439502  0.773590666420883  1.0000
  H   H17       1.0  0.16827041913656013  0.06453426019621429  0.9464005292158881  1.0000
  H   H18       1.0  0.8317295810754325  0.564534260372897  0.053599470678719126  1.0000
  H   H19       1.0  0.8317295810754325  0.935465740157151  0.053599470678719126  1.0000
  H   H20       1.0  0.16827041913656013  0.4354657399804684  0.9464005292158881  1.0000
  C   C1        1.0  0.17832267128952992  0.24999999935551592  0.22496884813323864  1.0000
  C   C2        1.0  0.8216773289224627  0.7499999995321985  0.7750311517613685  1.0000
  C   C3        1.0  0.6756517206313155  0.24999999935551592  0.6445789348541524  1.0000
  C   C4        1.0  0.3243482795806772  0.7499999995321985  0.35542106504045484  1.0000
  C   C5        1.0  0.5239305757495711  0.24999999935551592  0.6311090790703302  1.0000
  C   C6        1.0  0.47606942490129034  0.7499999995321985  0.36889092184287725  1.0000
  C   C7        1.0  0.602273611855892  0.24999999935551592  0.3997718595452361  1.0000
  C   C8        1.0  0.3977263883561007  0.7499999995321985  0.6002281403493711  1.0000
  C   C9        1.0  0.4472403036698231  0.24999999935551592  0.38208760635778255  1.0000
  C   C10       1.0  0.5527596965421695  0.7499999995321985  0.6179123935368246  1.0000
  C   C11       1.0  0.7154811158022303  0.24999999935551592  0.5298268235957391  1.0000
  C   C12       1.0  0.28451888440976236  0.7499999995321985  0.4701731762988681  1.0000
  C   C13       1.0  0.41188623672602737  0.24999999935551592  0.4997541293246117  1.0000
  C   C14       1.0  0.5881137634859653  0.7499999995321985  0.5002458705699956  1.0000
  C   C15       1.0  0.14284129444395777  0.24999999935551592  0.34851217734289947  1.0000
  C   C16       1.0  0.8571587057680349  0.7499999995321985  0.6514878225517078  1.0000
  C   C17       1.0  0.23434732805522637  0.05006970212172468  0.8815530426401003  1.0000
  C   C18       1.0  0.7656526721567664  0.5500697022984073  0.11844695725450713  1.0000
  C   C19       1.0  0.7656526721567664  0.9499302982316407  0.11844695725450713  1.0000
  C   C20       1.0  0.23434732805522637  0.449930298054958  0.8815530426401003  1.0000
  N   N1        1.0  0.33283050899927064  0.24999999935551592  0.2536432845273336  1.0000
  N   N2        1.0  0.6671694912127222  0.7499999995321985  0.7463567153672738  1.0000
  N   N3        1.0  0.19278024473549513  0.24999999935551592  0.569243135471194  1.0000
  N   N4        1.0  0.8072197554764976  0.7499999995321985  0.4307568644234133  1.0000
  N   N5        1.0  0.04493285267700054  0.24999999935551592  0.49998915721792137  1.0000
  N   N6        1.0  0.9550671475349921  0.7499999995321985  0.5000108426766858  1.0000
  N   N7        1.0  0.25634231074719915  0.24999999935551592  0.47482286481032143  1.0000
  N   N8        1.0  0.7436576894647935  0.7499999995321985  0.5251771350842858  1.0000
  N   N9        1.0  0.009461661302864879  0.24999999935551592  0.3640992346813715  1.0000
  N   N10       1.0  0.9905383393479966  0.7499999995321985  0.635900766231836  1.0000
  O   O1        1.0  0.07996082659172153  0.24999999935551592  0.10828870302315066  1.0000
  O   O2        1.0  0.9200391736202711  0.7499999995321985  0.8917112968714566  1.0000
  O   O3        1.0  0.4596947802502017  0.24999999935551592  0.06673655090635418  1.0000
  O   O4        1.0  0.5403052199617909  0.7499999995321985  0.933263448988253  1.0000
  S   S1        1.0  0.36612024246224983  0.24999999935551592  0.9128583604392626  1.0000
  S   S2        1.0  0.6338797577497429  0.7499999995321985  0.08714163945534469  1.0000
  Br  Br1       1.0  0.8307985630189707  0.24999999935551592  0.8219640492941818  1.0000
  Br  Br2       1.0  0.169201437193022  0.7499999995321985  0.17803595060042554  1.0000
