data_image0
_chemical_formula_structural       H40C52N6O6
_chemical_formula_sum              "H40 C52 N6 O6"
_cell_length_a       9.678473200049186
_cell_length_b       10.279163839964173
_cell_length_c       10.523098135776477
_cell_angle_alpha    77.50078851842822
_cell_angle_beta     86.72922700744341
_cell_angle_gamma    72.89566412375211

_space_group_name_H-M_alt    "P 1"
_space_group_IT_number       1

loop_
  _space_group_symop_operation_xyz
  'x, y, z'

loop_
  _atom_site_type_symbol
  _atom_site_label
  _atom_site_symmetry_multiplicity
  _atom_site_fract_x
  _atom_site_fract_y
  _atom_site_fract_z
  _atom_site_occupancy
  H   H1        1.0  0.7079108586020949  0.5298195941654636  0.1588757890429459  1.0000
  H   H2        1.0  0.29208914067928005  0.47018040570781944  0.8411242115288609  1.0000
  H   H3        1.0  0.4971382203679646  0.34548288103052255  0.4486003378102969  1.0000
  H   H4        1.0  0.5028617789134102  0.6545171188427604  0.5513996627615099  1.0000
  H   H5        1.0  0.9043782655313983  0.1713436121831483  0.4718975351249363  1.0000
  H   H6        1.0  0.09562173478144148  0.8286563876949099  0.5281024654507437  1.0000
  H   H7        1.0  0.08898615891283744  0.4435535123239761  0.08418117202816745  1.0000
  H   H8        1.0  0.9110138413956468  0.5564464877744466  0.9158188275741389  1.0000
  H   H9        1.0  0.33670607030054056  0.2810837472944378  0.1280308698868226  1.0000
  H   H10       1.0  0.6632939300079437  0.718916252803985  0.8719691297154836  1.0000
  H   H11       1.0  0.5041878751825363  0.0788726799536002  0.26700591641183447  1.0000
  H   H12       1.0  0.49581212409448316  0.9211273201400473  0.7329940831865986  1.0000
  H   H13       1.0  0.41382134893417  0.9452811868517421  0.4663881220685447  1.0000
  H   H14       1.0  0.5861786513743142  0.054718813246680646  0.5336118775337615  1.0000
  H   H15       1.0  0.15558556983859795  0.013934057939681799  0.5219095355970887  1.0000
  H   H16       1.0  0.8444144304698863  0.9860659421587408  0.4780904640052176  1.0000
  H   H17       1.0  0.23423691765624907  0.9622555535258295  0.20926422784673224  1.0000
  H   H18       1.0  0.7657630826565907  0.037744446352228955  0.7907357727289478  1.0000
  H   H19       1.0  0.021786049263676412  0.018722871387015765  0.241479348219034  1.0000
  H   H20       1.0  0.978213950013343  0.9812771287066316  0.7585206513793991  1.0000
  H   H21       1.0  0.49140152098625517  0.8969820334023223  0.15424845908033555  1.0000
  H   H22       1.0  0.5085984793265846  0.1030179664757359  0.8457515414953444  1.0000
  H   H23       1.0  0.7590936894162039  0.08086390981121089  0.27647017819321057  1.0000
  H   H24       1.0  0.24090631089663572  0.9191360900668475  0.7235298223824693  1.0000
  H   H25       1.0  0.44239103097228355  0.6139989330048821  0.945827294946013  1.0000
  H   H26       1.0  0.5576089693362007  0.3860010670935406  0.05417270465629331  1.0000
  H   H27       1.0  0.7106733435550023  0.7950954999867355  0.07139257622441664  1.0000
  H   H28       1.0  0.28932665675348207  0.2049045001116872  0.9286074233778897  1.0000
  H   H29       1.0  0.18331120346275714  0.6649700366980835  0.9928725559564545  1.0000
  H   H30       1.0  0.8166887968500828  0.33502996317997463  0.007127444619225612  1.0000
  H   H31       1.0  0.9696833409879364  0.7209289518409273  0.02621254615449675  1.0000
  H   H32       1.0  0.030316659320547945  0.2790710482574954  0.9737874534478095  1.0000
  H   H33       1.0  0.09158774407235792  0.6337297222829602  0.31881386275617235  1.0000
  H   H34       1.0  0.9084122562404817  0.3662702775950981  0.6811861378195077  1.0000
  H   H35       1.0  0.3611441588077927  0.5411908139774585  0.3011674347067148  1.0000
  H   H36       1.0  0.6388558415006915  0.4588091861209642  0.6988325648955915  1.0000
  H   H37       1.0  0.38345715912989825  0.22793350387410258  0.6275914601773641  1.0000
  H   H38       1.0  0.6165428401471212  0.7720664962195447  0.372408539421069  1.0000
  H   H39       1.0  0.1188255939496012  0.3022851750492903  0.660476882991039  1.0000
  H   H40       1.0  0.8811744063588831  0.6977148250491324  0.3395231166112673  1.0000
  C   C1        1.0  0.09586547581561068  0.1890834619433315  0.35905459528067174  1.0000
  C   C2        1.0  0.9041345244972291  0.810916537934727  0.6409454052950082  1.0000
  C   C3        1.0  0.9464333656768028  0.22816811947848856  0.38629722120407184  1.0000
  C   C4        1.0  0.05356663463168165  0.771831880619934  0.6137027783982344  1.0000
  C   C5        1.0  0.8490459414650532  0.33731141473545706  0.30646346507901123  1.0000
  C   C6        1.0  0.15095405781196622  0.6626885853581904  0.6935365345194218  1.0000
  C   C7        1.0  0.9016903677642507  0.4182909407717824  0.19631657234163669  1.0000
  C   C8        1.0  0.09830963286789149  0.5817090583093464  0.8036834272582196  1.0000
  C   C9        1.0  0.048544910372861  0.38386225004968294  0.1688655641646654  1.0000
  C   C10       1.0  0.951455089939979  0.6161377498283752  0.8311344364110146  1.0000
  C   C11       1.0  0.14738272968701552  0.26802741326531315  0.24635335732398606  1.0000
  C   C12       1.0  0.8526172706214689  0.7319725868331093  0.7536466422783203  1.0000
  C   C13       1.0  0.29690730953139943  0.22577338671082073  0.2161488128406188  1.0000
  C   C14       1.0  0.7030926907770847  0.7742266133876019  0.7838511867616874  1.0000
  C   C15       1.0  0.39083689911588904  0.11258075563979317  0.2943457226112288  1.0000
  C   C16       1.0  0.6091631011969508  0.8874192442382651  0.7056542779644512  1.0000
  C   C17       1.0  0.3400089278798176  0.03582502763938479  0.40601714934455585  1.0000
  C   C18       1.0  0.6599910724330221  0.9641749722386737  0.593982851231124  1.0000
  C   C19       1.0  0.19539192045869586  0.07346050413981838  0.43706930747068895  1.0000
  C   C20       1.0  0.8046080798497884  0.9265394959586043  0.5629306921316173  1.0000
  C   C21       1.0  0.6909181640309965  0.3715140216327081  0.3344290440275885  1.0000
  C   C22       1.0  0.30908183628184327  0.6284859782453501  0.6655709565480914  1.0000
  C   C23       1.0  0.18117513956651052  0.8209071173413693  0.10534169341179045  1.0000
  C   C24       1.0  0.8188248607419738  0.17909288275705323  0.8946583061905158  1.0000
  C   C25       1.0  0.27358025001710495  0.8834467257332757  0.15115187684805884  1.0000
  C   C26       1.0  0.7264197502913794  0.11655327436514708  0.8488481227542474  1.0000
  C   C27       1.0  0.9588287609437678  0.9644299193127972  0.20209986935749885  1.0000
  C   C28       1.0  0.04117123833325165  0.03557008078085017  0.7979001302409344  1.0000
  C   C29       1.0  0.4200439557664401  0.846115808900451  0.1205629239867057  1.0000
  C   C30       1.0  0.5799560445420443  0.15388419119797167  0.8794370756156005  1.0000
  C   C31       1.0  0.8100437622077007  0.9998828001315867  0.22209572253475182  1.0000
  C   C32       1.0  0.18995623706931866  0.00011719996206069944  0.7779042770636811  1.0000
  C   C33       1.0  0.3931364707516874  0.6900827949946211  0.00570860809006664  1.0000
  C   C34       1.0  0.6068635295567968  0.30991720510380155  0.9942913915122397  1.0000
  C   C35       1.0  0.7826788079697541  0.8430578160443106  0.1081311744150733  1.0000
  C   C36       1.0  0.21732119233873026  0.15694218405411195  0.891868825187233  1.0000
  C   C37       1.0  0.24565483356472886  0.7200039771696987  0.03180453585794877  1.0000
  C   C38       1.0  0.754345165716646  0.27999602270358426  0.9681954647138581  1.0000
  C   C39       1.0  0.9304023019143078  0.8008045084355413  0.08320561981330282  1.0000
  C   C40       1.0  0.06959769839417641  0.19919549166288134  0.9167943797890034  1.0000
  C   C41       1.0  0.023653359638576798  0.8614897132575038  0.13073691744329918  1.0000
  C   C42       1.0  0.9763466406742629  0.13851028662055456  0.8692630831323808  1.0000
  C   C43       1.0  0.0793092994316593  0.47573533114266725  0.4920371528656001  1.0000
  C   C44       1.0  0.920690700876825  0.5242646689557554  0.5079628467367062  1.0000
  C   C45       1.0  0.14995965945995243  0.543347214922401  0.38980036582658034  1.0000
  C   C46       1.0  0.8500403398170671  0.45665278517124647  0.6101996337718527  1.0000
  C   C47       1.0  0.29846346547670594  0.49514677031181786  0.37768670318649444  1.0000
  C   C48       1.0  0.7015365348361339  0.5048532295662405  0.6223132973891855  1.0000
  C   C49       1.0  0.31304570047536434  0.31659928187146064  0.5621872132265852  1.0000
  C   C50       1.0  0.6869542998374756  0.6834007180065976  0.43781278734909473  1.0000
  C   C51       1.0  0.1648817524264386  0.3599047706637379  0.5788171002147223  1.0000
  C   C52       1.0  0.8351182468505809  0.6400952294299096  0.4211828993837108  1.0000
  N   N1        1.0  0.4809374122883692  0.7515104669858387  0.04829128599592102  1.0000
  N   N2        1.0  0.5190625880201151  0.24848953311258395  0.9517087136063852  1.0000
  N   N3        1.0  0.7213951103714221  0.9404989234888532  0.17772277199827416  1.0000
  N   N4        1.0  0.27860488994141774  0.059501076389205015  0.8222772285774058  1.0000
  N   N5        1.0  0.37611850902408267  0.38384723336055915  0.4630292553084701  1.0000
  N   N6        1.0  0.6238814912844016  0.6161527667378635  0.5369707442938362  1.0000
  O   O1        1.0  0.8084912713531537  0.5263019946642857  0.11823096042249533  1.0000
  O   O2        1.0  0.19150872792822132  0.4736980052089973  0.8817690401493115  1.0000
  O   O3        1.0  0.648668347809336  0.29450792301778955  0.4319967289588618  1.0000
  O   O4        1.0  0.35133165249914805  0.7054920770806332  0.5680032706434446  1.0000
  O   O5        1.0  0.6057852571975249  0.47563784369792406  0.2596097346115121  1.0000
  O   O6        1.0  0.3942147431109594  0.5243621564004987  0.7403902649907942  1.0000
