data_image0
_chemical_formula_structural       H40C52N4O2
_chemical_formula_sum              "H40 C52 N4 O2"
_cell_length_a       9.014980568487827
_cell_length_b       10.488231324081228
_cell_length_c       11.388846891159332
_cell_angle_alpha    88.21005056088595
_cell_angle_beta     84.53616675254703
_cell_angle_gamma    65.6274201925103

_space_group_name_H-M_alt    "P 1"
_space_group_IT_number       1

loop_
  _space_group_symop_operation_xyz
  'x, y, z'

loop_
  _atom_site_type_symbol
  _atom_site_label
  _atom_site_symmetry_multiplicity
  _atom_site_fract_x
  _atom_site_fract_y
  _atom_site_fract_z
  _atom_site_occupancy
  H   H1        1.0  0.10530683489605729  0.2635839698093916  0.40540691230636783  1.0000
  H   H2        1.0  0.8946931654555855  0.7364160308443507  0.5945930880809343  1.0000
  H   H3        1.0  0.5891084339835423  0.6124771806273915  0.336587044215992  1.0000
  H   H4        1.0  0.41089156525525744  0.38752282002327826  0.6634129562537002  1.0000
  H   H5        1.0  0.29011614908488037  0.5826573630279315  0.38936856046159496  1.0000
  H   H6        1.0  0.7098838506606918  0.417342636576015  0.6106314399917238  1.0000
  H   H7        1.0  0.5164926935511521  0.43966517513041925  0.2423604978744983  1.0000
  H   H8        1.0  0.48350730619442006  0.5603348244735271  0.7576395025788203  1.0000
  H   H9        1.0  0.5333878315424059  0.21296185254443303  0.1716495119772505  1.0000
  H   H10       1.0  0.4666121693160093  0.7870381470625861  0.8283504883936779  1.0000
  H   H11       1.0  0.22773338924873213  0.021847722473277972  0.035834005772859695  1.0000
  H   H12       1.0  0.7722666104940513  0.9781522771405537  0.9641659938023733  1.0000
  H   H13       1.0  0.05089265645993798  0.5225591876857199  0.1333787921307472  1.0000
  H   H14       1.0  0.9491073443984773  0.4774408119212991  0.8666212082401813  1.0000
  H   H15       1.0  0.26414265096130934  0.54961304732171  0.9433832820456816  1.0000
  H   H16       1.0  0.7358573493903334  0.4503869533320324  0.05661671834162054  1.0000
  H   H17       1.0  0.6069366514181411  0.847422666967428  0.023916218194253373  1.0000
  H   H18       1.0  0.39306334893071304  0.15257733369619933  0.976083781314963  1.0000
  H   H19       1.0  0.38767985902769125  0.5853581223168255  0.11725158720072917  1.0000
  H   H20       1.0  0.6123201407178808  0.414641877287121  0.8827484132525896  1.0000
  H   H21       1.0  0.1201519792088571  0.751296386004584  0.8143037660927409  1.0000
  H   H22       1.0  0.8798480205339264  0.24870361360924753  0.1856962334824921  1.0000
  H   H23       1.0  0.10433474243604489  0.9877012729648544  0.8611783508148704  1.0000
  H   H24       1.0  0.895665256799966  0.012298727695700448  0.13882164877673628  1.0000
  H   H25       1.0  0.8888500089478243  0.47308950710079345  0.30545683684624464  1.0000
  H   H26       1.0  0.11114999190780242  0.5269104925161107  0.6945431626465981  1.0000
  H   H27       1.0  0.9081360926288992  0.7122119561479959  0.9936941202495109  1.0000
  H   H28       1.0  0.09186390660990042  0.28778804450267387  0.006305880220181391  1.0000
  H   H29       1.0  0.20751618790146265  0.8247453177192727  0.30882754377375926  1.0000
  H   H30       1.0  0.792483812954164  0.17525468189763138  0.6911724557190836  1.0000
  H   H31       1.0  0.04520198235514425  0.0955926358308945  0.3617470586195043  1.0000
  H   H32       1.0  0.9547980173876395  0.9044073637829372  0.6382529409557288  1.0000
  H   H33       1.0  0.9463992290181836  0.7504155533524413  0.3151709967837091  1.0000
  H   H34       1.0  0.053600771840231626  0.24958444625457774  0.6848290035872193  1.0000
  H   H35       1.0  0.5581747884364642  0.12690953658384957  0.46487564833589307  1.0000
  H   H36       1.0  0.44182521080233556  0.8730904640668202  0.5351243521337992  1.0000
  H   H37       1.0  0.7563771258194562  0.23919487879082385  0.44542584520497025  1.0000
  H   H38       1.0  0.24362287341655492  0.7608051218697311  0.5545741543866362  1.0000
  H   H39       1.0  0.6543613567220837  0.8776163378908642  0.39351333870217314  1.0000
  H   H40       1.0  0.3456386436267703  0.12238366277276318  0.6064866608070432  1.0000
  C   C1        1.0  0.18268431018335085  0.4319530618941369  0.4044434348283262  1.0000
  C   C2        1.0  0.8173156895594328  0.5680469377196948  0.5955565647469069  1.0000
  C   C3        1.0  0.19417984205002176  0.3017860631537568  0.3667822092676664  1.0000
  C   C4        1.0  0.8058201588083937  0.6982139364532622  0.6332177911032619  1.0000
  C   C5        1.0  0.5793584764281007  0.7372532938111155  0.18182214409219555  1.0000
  C   C6        1.0  0.42064152442752595  0.2627467058057887  0.8181778554006472  1.0000
  C   C7        1.0  0.3389609471158964  0.08706339087265842  0.24825051889181776  1.0000
  C   C8        1.0  0.6610390532357465  0.9129366097810839  0.7517494814954844  1.0000
  C   C9        1.0  0.31616399077537005  0.8060379374389635  0.08805213270742306  1.0000
  C   C10       1.0  0.6838360089702021  0.19396206216498302  0.9119478677458955  1.0000
  C   C11       1.0  0.393025275578621  0.8218372206146509  0.19853795578683653  1.0000
  C   C12       1.0  0.6069747252770058  0.1781627790022533  0.8014620437060063  1.0000
  C   C13       1.0  0.6596659039589788  0.6327225590585919  0.26113261636440405  1.0000
  C   C14       1.0  0.3403340963898751  0.36727744160503567  0.7388673831448123  1.0000
  C   C15       1.0  0.2996827921835121  0.4813812728838937  0.36052181675970074  1.0000
  C   C16       1.0  0.70031720756206  0.5186187267200528  0.6394781836936179  1.0000
  C   C17       1.0  0.4248587207510052  0.40219084007620004  0.27671272400565083  1.0000
  C   C18       1.0  0.5751412789945669  0.5978091595277465  0.7232872764476679  1.0000
  C   C19       1.0  0.4350296404806204  0.27471062683153524  0.23662675096934468  1.0000
  C   C20       1.0  0.5649703592649518  0.7252893727724113  0.763373249483974  1.0000
  C   C21       1.0  0.3203710755222358  0.2221406304702692  0.2829306252990163  1.0000
  C   C22       1.0  0.6796289248266183  0.7778593701933583  0.7170693742102  1.0000
  C   C23       1.0  0.3618979563861304  0.9686084514220175  0.22101453599354756  1.0000
  C   C24       1.0  0.6381020433566529  0.031391548191814236  0.7789854635816855  1.0000
  C   C25       1.0  0.23689489703253233  0.9181480810376175  0.01500517202948896  1.0000
  C   C26       1.0  0.7631051027102512  0.08185191857621396  0.9849948275457442  1.0000
  C   C27       1.0  0.9189939678298474  0.5831480651716516  0.14723159913886602  1.0000
  C   C28       1.0  0.08100603252179557  0.4168519354820906  0.852768401248436  1.0000
  C   C29       1.0  0.2558035606701374  0.653480637989597  0.9632046004905974  1.0000
  C   C30       1.0  0.7441964401854892  0.34651936162730723  0.03679539900224535  1.0000
  C   C31       1.0  0.6697895287382855  0.765279031163724  0.08555631850535095  1.0000
  C   C32       1.0  0.3302104710044981  0.23472096845010765  0.914443681069882  1.0000
  C   C33       1.0  0.32598914291162806  0.6732780693932638  0.06079756408183869  1.0000
  C   C34       1.0  0.6740108568339441  0.3267219302106827  0.9392024363714799  1.0000
  C   C35       1.0  0.17526524199524737  0.7666638931594039  0.8907523382825163  1.0000
  C   C36       1.0  0.8247347577503249  0.23333610644454258  0.10924766217080235  1.0000
  C   C37       1.0  0.16676449084324335  0.898715673133704  0.9165593993893428  1.0000
  C   C38       1.0  0.8332355089023288  0.10128432647024252  0.08344060106397592  1.0000
  C   C39       1.0  0.8288552357274834  0.5551832450690671  0.2431775822697725  1.0000
  C   C40       1.0  0.17114476351131627  0.44481675558160266  0.7568224181999198  1.0000
  C   C41       1.0  0.8386173998432599  0.6892808669773176  0.06858612947098901  1.0000
  C   C42       1.0  0.16138259989952378  0.310719132636514  0.931413870104244  1.0000
  C   C43       1.0  0.9533548644378889  0.05241077894228516  0.3712495116327  1.0000
  C   C44       1.0  0.046645135910965266  0.9475892217213424  0.6287504878765164  1.0000
  C   C45       1.0  0.899382043042708  0.8587954970946879  0.34526865466777656  1.0000
  C   C46       1.0  0.10061795619609164  0.14120450355598177  0.6547313458019156  1.0000
  C   C47       1.0  0.6834807981655883  0.0683955783965285  0.42776258122486277  1.0000
  C   C48       1.0  0.31651920269282724  0.9316044212104904  0.5722374191460656  1.0000
  C   C49       1.0  0.7934977220078581  0.13133300684309548  0.417187275649947  1.0000
  C   C50       1.0  0.20650227834378485  0.8686669938106467  0.582812724737355  1.0000
  C   C51       1.0  0.736646352486418  0.93013059872946  0.3897929915575274  1.0000
  C   C52       1.0  0.2633536483719973  0.06986940087755904  0.6102070088134011  1.0000
  N   N1        1.0  0.057736098607519486  0.5192134193426252  0.48717445250856206  1.0000
  N   N2        1.0  0.9422639022481073  0.48078658027427895  0.5128255469842806  1.0000
  N   N3        1.0  0.006286759939069272  0.918346395284277  0.3367730782533124  1.0000
  N   N4        1.0  0.9937132392997305  0.08165360536639277  0.6632269222163799  1.0000
  O   O1        1.0  0.3311311037056282  0.7684960575930758  0.29902135797202845  1.0000
  O   O2        1.0  0.6688688960399439  0.23150394201087068  0.7009786424812902  1.0000
