data_image0
_chemical_formula_structural       H104C84N28O8S4Br4
_chemical_formula_sum              "H104 C84 N28 O8 S4 Br4"
_cell_length_a       15.082795918041239
_cell_length_b       13.361015067594714
_cell_length_c       11.582093213132602
_cell_angle_alpha    90.0
_cell_angle_beta     108.36245997257954
_cell_angle_gamma    90.0

_space_group_name_H-M_alt    "P 1"
_space_group_IT_number       1

loop_
  _space_group_symop_operation_xyz
  'x, y, z'

loop_
  _atom_site_type_symbol
  _atom_site_label
  _atom_site_symmetry_multiplicity
  _atom_site_fract_x
  _atom_site_fract_y
  _atom_site_fract_z
  _atom_site_occupancy
  H   H1        1.0  0.5217372538594461  0.08761506248422632  0.6646919808786445  1.0000
  H   H2        1.0  0.47826274586422074  0.5876150622000147  0.835308019059287  1.0000
  H   H3        1.0  0.4782627454924279  0.9123849376957965  0.3353080187345772  1.0000
  H   H4        1.0  0.5217372543742478  0.41238493798000814  0.16469198145634728  1.0000
  H   H5        1.0  0.9919947123194471  0.12239291189530782  0.141499877310242  1.0000
  H   H6        1.0  0.008005287983083177  0.6223929116110961  0.3585001219637084  1.0000
  H   H7        1.0  0.008005287693651506  0.8776070882847149  0.8585001222956988  1.0000
  H   H8        1.0  0.9919947120300154  0.3776070885689266  0.6414998776422325  1.0000
  H   H9        1.0  0.9723625921650344  0.15187440997065663  0.9850391825512045  1.0000
  H   H10       1.0  0.02763740821985701  0.651874409686445  0.514960817379446  1.0000
  H   H11       1.0  0.027637407848064163  0.8481255902093662  0.014960817054736402  1.0000
  H   H12       1.0  0.9723625920186114  0.34812559049357783  0.4850391831361881  1.0000
  H   H13       1.0  0.9467270018030614  0.2428686902591877  0.08220398656965655  1.0000
  H   H14       1.0  0.05327299806361428  0.742868689974976  0.41779601362126795  1.0000
  H   H15       1.0  0.053272998435407184  0.7571313099208351  0.9177960139459778  1.0000
  H   H16       1.0  0.9467270021748542  0.2571313094566007  0.5822039868943661  1.0000
  H   H17       1.0  0.3900605767698614  0.1783536458827594  0.31841611217046145  1.0000
  H   H18       1.0  0.6099394230968143  0.6783536463469939  0.18158388802046305  1.0000
  H   H19       1.0  0.6099394234686071  0.8216463542972633  0.6815838883451727  1.0000
  H   H20       1.0  0.39006057714165426  0.321646353833029  0.8184161124951711  1.0000
  H   H21       1.0  0.3174384522136119  0.06984039201207085  0.30550420161578584  1.0000
  H   H22       1.0  0.6825615476530638  0.5698403917278592  0.19449579857513868  1.0000
  H   H23       1.0  0.6825615480248567  0.930159608167952  0.6944957988998484  1.0000
  H   H24       1.0  0.31743845169881024  0.4301596084521636  0.805504201038083  1.0000
  H   H25       1.0  0.31666095701696106  0.16521429987410288  0.41211152895772823  1.0000
  H   H26       1.0  0.6833390426243445  0.6652142995898912  0.08788847032350296  1.0000
  H   H27       1.0  0.6833390429961375  0.8347857003059199  0.5878884706482127  1.0000
  H   H28       1.0  0.3166609567275295  0.3347857005901316  0.9121115292897187  1.0000
  H   H29       1.0  0.12234102751524989  0.5037507506689508  0.9678979620525453  1.0000
  H   H30       1.0  0.8776589728696416  0.003750750953162545  0.5321020378781053  1.0000
  H   H31       1.0  0.8776589724978487  0.4962492495110719  0.032102037553395565  1.0000
  H   H32       1.0  0.12234102714345702  0.9962492492268603  0.4678979617278356  1.0000
  H   H33       1.0  0.22063769749589912  0.5215729220230969  0.9171043896957757  1.0000
  H   H34       1.0  0.7793623028889923  0.021572921558862448  0.5828956102348749  1.0000
  H   H35       1.0  0.7793623027425693  0.4784270781569259  0.08289561081985851  1.0000
  H   H36       1.0  0.2206376971241063  0.9784270786211603  0.41710438937106603  1.0000
  H   H37       1.0  0.2155680179338761  0.5832593123033508  0.052892324277739475  1.0000
  H   H38       1.0  0.7844319817074296  0.0832593118391163  0.4471076750034917  1.0000
  H   H39       1.0  0.7844319820792225  0.416740687876672  0.9471076753282014  1.0000
  H   H40       1.0  0.21556801830566896  0.9167406883409064  0.5528923246024491  1.0000
  H   H41       1.0  0.39184959052946183  0.5403000837495183  0.07127483562914345  1.0000
  H   H42       1.0  0.6081504093372139  0.040300083285283894  0.428725164561781  1.0000
  H   H43       1.0  0.6081504097090067  0.4596999164305044  0.9287251648864908  1.0000
  H   H44       1.0  0.3918495906758847  0.9596999168947389  0.5712748350441598  1.0000
  H   H45       1.0  0.6031997431036318  0.3331720282837294  0.3275626952527903  1.0000
  H   H46       1.0  0.396800256537674  0.8331720279995176  0.17243730402844085  1.0000
  H   H47       1.0  0.3968002569094668  0.6668279718962934  0.6724373043531505  1.0000
  H   H48       1.0  0.6031997434754246  0.16682797218050507  0.8275626955774998  1.0000
  H   H49       1.0  0.6838117059919976  0.35172980617302835  0.4729401581719335  1.0000
  H   H50       1.0  0.31618829387467806  0.8517298066372628  0.02705984201899099  1.0000
  H   H51       1.0  0.316188294021101  0.6482701932585482  0.5270598414340073  1.0000
  H   H52       1.0  0.6838117063637904  0.14827019354275994  0.9729401584966432  1.0000
  H   H53       1.0  0.7855978713134674  0.45331015864877255  0.37544775766429456  1.0000
  H   H54       1.0  0.21440212921443286  0.9533101583645609  0.12455224251934911  1.0000
  H   H55       1.0  0.2144021289250012  0.5466898415312502  0.6245522428513396  1.0000
  H   H56       1.0  0.7855978707986657  0.04668984181546189  0.8754477570865917  1.0000
  H   H57       1.0  0.7043334370159856  0.42440116123758004  0.231270998945043  1.0000
  H   H58       1.0  0.29566656285069004  0.9244011609533683  0.2687290012458815  1.0000
  H   H59       1.0  0.2956665623358885  0.5755988389424428  0.7687290006681788  1.0000
  H   H60       1.0  0.7043334373877785  0.07559883922665443  0.7312709992697528  1.0000
  H   H61       1.0  0.8189767866345531  0.2712769382912236  0.41295619553057417  1.0000
  H   H62       1.0  0.1810232132321225  0.7712769387554581  0.08704380466035032  1.0000
  H   H63       1.0  0.18102321360391538  0.728723061140353  0.58704380498506  1.0000
  H   H64       1.0  0.8189767867809762  0.2287230614245647  0.9129561949455907  1.0000
  H   H65       1.0  0.7318973608556502  0.24178224960130634  0.27472197852605035  1.0000
  H   H66       1.0  0.2681026394468801  0.7417822493170947  0.22527802074790002  1.0000
  H   H67       1.0  0.2681026391574485  0.7582177505787164  0.7252780210798905  1.0000
  H   H68       1.0  0.7318973605662183  0.25821775011448195  0.7747219788580408  1.0000
  H   H69       1.0  0.9050138507019911  0.2492589771923324  0.2679190993467011  1.0000
  H   H70       1.0  0.09498614982590911  0.7492589776565669  0.23208090083694258  1.0000
  H   H71       1.0  0.09498614931110753  0.7507410222392442  0.7320809002592399  1.0000
  H   H72       1.0  0.9050138504125594  0.2507410225234559  0.7679190996786915  1.0000
  H   H73       1.0  0.8943965784999789  0.38120691536027973  0.27790051230115215  1.0000
  H   H74       1.0  0.10560342136669663  0.8812069158245143  0.22209948788977235  1.0000
  H   H75       1.0  0.10560342173848952  0.618793084071297  0.7220994882144821  1.0000
  H   H76       1.0  0.894396578646402  0.11879308435550859  0.7779005117161686  1.0000
  H   H77       1.0  0.8186481092811215  0.3153406847222788  0.1528389793116159  1.0000
  H   H78       1.0  0.18135189102140878  0.8153406844380671  0.34716101996233445  1.0000
  H   H79       1.0  0.18135189073197716  0.684659315457744  0.8471610202943249  1.0000
  H   H80       1.0  0.8186481089916898  0.1846593149935096  0.6528389796436065  1.0000
  H   H81       1.0  0.9951184070950916  0.5316828799354726  0.7986503504763113  1.0000
  H   H82       1.0  0.00488159262857537  0.03168287947123814  0.70134964946162  1.0000
  H   H83       1.0  0.004881592482152453  0.4683171202445502  0.2013496500466037  1.0000
  H   H84       1.0  0.9951184073845233  0.9683171199603384  0.2986503501443208  1.0000
  H   H85       1.0  0.8864923871903259  0.3973586298002552  0.8056228397702591  1.0000
  H   H86       1.0  0.11350761253334099  0.8973586302644897  0.6943771601676721  1.0000
  H   H87       1.0  0.11350761304814258  0.6026413696313214  0.19437716074537498  1.0000
  H   H88       1.0  0.8864923868185329  0.10264136991553308  0.3056228394455495  1.0000
  H   H89       1.0  0.7226648509145147  0.39832798279734993  0.6644254345059681  1.0000
  H   H90       1.0  0.27733514947037663  0.8983279825131383  0.8355745654246824  1.0000
  H   H91       1.0  0.27733514909858376  0.6016720173826728  0.33557456509997274  1.0000
  H   H92       1.0  0.7226648505427219  0.10167201766688452  0.16442543418125843  1.0000
  H   H93       1.0  0.9396869983749456  0.6773837686891631  0.6577458525673618  1.0000
  H   H94       1.0  0.060313001348721355  0.17738376822492866  0.8422541473705695  1.0000
  H   H95       1.0  0.060313001202298475  0.32261623149085966  0.3422541479555532  1.0000
  H   H96       1.0  0.9396869986643772  0.8226162312066481  0.15774585223537133  1.0000
  H   H97       1.0  0.776261533606876  0.6807322777488161  0.5198569782147701  1.0000
  H   H98       1.0  0.22373846611679088  0.18073227728458158  0.9801430217231613  1.0000
  H   H99       1.0  0.22373846663159253  0.31926772243120677  0.48014302230086425  1.0000
  H   H100      1.0  0.7762615338963076  0.8192677228954411  0.019856977882779465  1.0000
  H   H101      1.0  0.5875425212594552  0.6799721603514012  0.5526352543931028  1.0000
  H   H102      1.0  0.4124574791254363  0.1799721606356129  0.9473647455375477  1.0000
  H   H103      1.0  0.41245747875364347  0.32002783982862154  0.44736474521283803  1.0000
  H   H104      1.0  0.5875425211130322  0.8200278395444099  0.05263525497808647  1.0000
  C   C1        1.0  0.5299720192279848  0.5090657255896988  0.31261304373729365  1.0000
  C   C2        1.0  0.47002798063869083  0.009065725873910392  0.18738695645363085  1.0000
  C   C3        1.0  0.47002798078511376  0.490934273841878  0.6873869558686472  1.0000
  C   C4        1.0  0.5299720189385532  0.9909342743061124  0.8126130440692843  1.0000
  C   C5        1.0  0.1959710189839271  0.3438275435480819  0.09571688853966977  1.0000
  C   C6        1.0  0.8040289808827485  0.8438275440123164  0.40428311165125475  1.0000
  C   C7        1.0  0.8040289810291715  0.6561724558834947  0.9042831110662711  1.0000
  C   C8        1.0  0.19597101935571998  0.1561724561677064  0.5957168888643795  1.0000
  C   C9        1.0  0.26582576946063047  0.29029730678226445  0.1801221824574543  1.0000
  C   C10       1.0  0.7341742301806752  0.7902973064980527  0.3198778168237769  1.0000
  C   C11       1.0  0.7341742305524681  0.7097026933977583  0.8198778171484865  1.0000
  C   C12       1.0  0.2658257698324234  0.20970269368197003  0.680122182782164  1.0000
  C   C13       1.0  0.734853625540541  0.3970898627955155  0.324968704080906  1.0000
  C   C14       1.0  0.2651463743261346  0.8970898625113038  0.1750312961100185  1.0000
  C   C15       1.0  0.2651463746979275  0.6029101373845073  0.6750312964347281  1.0000
  C   C16       1.0  0.7348536256869639  0.10291013766871894  0.8249687034959222  1.0000
  C   C17       1.0  0.33213661980704506  0.4194318763693195  0.13967777892777364  1.0000
  C   C18       1.0  0.6678633800596306  0.9194318760851077  0.3603222212631509  1.0000
  C   C19       1.0  0.6678633797701989  0.5805681238107033  0.8603222215951414  1.0000
  C   C20       1.0  0.33213661995346794  0.08056812334646887  0.6396777783427899  1.0000
  C   C21       1.0  0.7703399201844996  0.4589007249060597  0.6615228837035968  1.0000
  C   C22       1.0  0.2296600795391674  0.9589007253702941  0.8384771162343346  1.0000
  C   C23       1.0  0.22966007939274444  0.541099274525517  0.3384771168193182  1.0000
  C   C24       1.0  0.7703399204739313  0.04109927480972862  0.16152288337160628  1.0000
  C   C25       1.0  0.6442134201584804  0.5462192986893932  0.49210089490948183  1.0000
  C   C26       1.0  0.35578657948282544  0.046219298973604904  0.007899104371749342  1.0000
  C   C27       1.0  0.3557865798546183  0.45378070149062955  0.507899104696459  1.0000
  C   C28       1.0  0.6442134198690486  0.9537807012064179  0.9921008952414722  1.0000
  C   C29       1.0  0.6575371869962316  0.38431806071785196  0.3816649965215166  1.0000
  C   C30       1.0  0.342462812870444  0.8843180604336404  0.11833500366940797  1.0000
  C   C31       1.0  0.3424628132422369  0.6156819394621708  0.6183350039941177  1.0000
  C   C32       1.0  0.6575371871426545  0.11568193974638248  0.881664995936533  1.0000
  C   C33       1.0  0.15799144669536247  0.1642462993191624  0.19614179238953344  1.0000
  C   C34       1.0  0.8420085531713132  0.6642462997833968  0.303858207801391  1.0000
  C   C35       1.0  0.8420085535431061  0.8357537008608604  0.8038582081261009  1.0000
  C   C36       1.0  0.15799144618056088  0.3357537003966259  0.6961417918118306  1.0000
  C   C37       1.0  0.10139404921262989  0.31162337958125985  0.05407416381055861  1.0000
  C   C38       1.0  0.8986059506540458  0.8116233792970482  0.4459258363803659  1.0000
  C   C39       1.0  0.8986059510258385  0.6883766205987629  0.9459258367050757  1.0000
  C   C40       1.0  0.10139404935905279  0.18837662013452844  0.5540741632255749  1.0000
  C   C41       1.0  0.7391024064116121  0.5389341194191387  0.5802488969321755  1.0000
  C   C42       1.0  0.26089759331205487  0.0389341189549042  0.9197511030057559  1.0000
  C   C43       1.0  0.2608975936014865  0.4610658807608842  0.4197511026737653  1.0000
  C   C44       1.0  0.7391024062651891  0.9610658804766724  0.08024889751715918  1.0000
  C   C45       1.0  0.89272754717058  0.6157540230572516  0.6590002196696406  1.0000
  C   C46       1.0  0.10727245277845696  0.11575402334146322  0.840999781177984  1.0000
  C   C47       1.0  0.10727245306788862  0.3842459763743251  0.34099978084599347  1.0000
  C   C48       1.0  0.8927275467987871  0.8842459768385595  0.15900021934493103  1.0000
  C   C49       1.0  0.5825291010900563  0.6214526709230613  0.486326752745235  1.0000
  C   C50       1.0  0.41747089877661936  0.12145267120727292  0.013673247445689481  1.0000
  C   C51       1.0  0.41747089892304223  0.3785473292569615  0.5136732468607058  1.0000
  C   C52       1.0  0.5825291014618492  0.8785473289727498  0.9863267530699447  1.0000
  C   C53       1.0  0.7843912681078391  0.29845003166498624  0.319958535151125  1.0000
  C   C54       1.0  0.2156087317588365  0.7984500321292207  0.18004146503979954  1.0000
  C   C55       1.0  0.2156087319052594  0.7015499677665905  0.6800414644548158  1.0000
  C   C56       1.0  0.7843912684796319  0.2015499680508021  0.8199585354758345  1.0000
  C   C57       1.0  0.8009412397481944  0.6178791138423719  0.5814633729923073  1.0000
  C   C58       1.0  0.199058760636697  0.11787911412658357  0.9185366269383435  1.0000
  C   C59       1.0  0.19905876049027404  0.3821208863376509  0.418536627523327  1.0000
  C   C60       1.0  0.8009412393764017  0.8821208860534392  0.08146337266759754  1.0000
  C   C61       1.0  0.8619159411816053  0.45790267648439886  0.7404933194588641  1.0000
  C   C62       1.0  0.13808405854206157  0.9579026769486333  0.7595066804790672  1.0000
  C   C63       1.0  0.13808405905686316  0.5420973236956239  0.25950668105677005  1.0000
  C   C64       1.0  0.861915941471037  0.0420973232313895  0.24049331912687363  1.0000
  C   C65       1.0  0.9939520112635173  0.18185759447971492  0.07788078153551793  1.0000
  C   C66       1.0  0.006047988603158272  0.6818575941955032  0.4221192186554066  1.0000
  C   C67       1.0  0.006047988974951133  0.8181424057003079  0.9221192189801163  1.0000
  C   C68       1.0  0.9939520114099403  0.3181424052360734  0.5778807809505343  1.0000
  C   C69       1.0  0.32273325176976053  0.15045034601266086  0.321666619321479  1.0000
  C   C70       1.0  0.6772667478715452  0.6504503457284493  0.1783333799597522  1.0000
  C   C71       1.0  0.6772667482433381  0.8495496541673618  0.6783333802844618  1.0000
  C   C72       1.0  0.32273325214155335  0.34954965445157354  0.8216666196461887  1.0000
  C   C73       1.0  0.19787770977835098  0.5150811225930993  0.9976212065940429  1.0000
  C   C74       1.0  0.8021222899453161  0.01508112287731103  0.5023787933438886  1.0000
  C   C75       1.0  0.8021222902347476  0.4849188775869235  0.0023787930118980396  1.0000
  C   C76       1.0  0.19787771006778263  0.9849188773027118  0.4976212062620523  1.0000
  C   C77       1.0  0.9234954921062225  0.5352519672958826  0.7381917861839523  1.0000
  C   C78       1.0  0.07650450827866888  0.03525196758009428  0.7618082137466982  1.0000
  C   C79       1.0  0.07650450813224599  0.4647480328841402  0.26180821433168194  1.0000
  C   C80       1.0  0.9234954917344297  0.9647480325999285  0.23819178585924256  1.0000
  C   C81       1.0  0.8549992765899856  0.31121285613133853  0.25112306215683705  1.0000
  C   C82       1.0  0.14500072305132003  0.8112128558471269  0.24887693712439413  1.0000
  C   C83       1.0  0.14500072276188838  0.6887871440486842  0.7488769374563847  1.0000
  C   C84       1.0  0.8549992769617785  0.18878714433289592  0.7511230624815467  1.0000
  N   N1        1.0  0.24094580093651574  0.428873313966823  0.07053299681299267  1.0000
  N   N2        1.0  0.7590541995913844  0.9288733136826114  0.429467003370651  1.0000
  N   N3        1.0  0.7590541993019527  0.5711266862131998  0.9294670037026415  1.0000
  N   N4        1.0  0.2409458004217141  0.07112668649741147  0.5705329962352897  1.0000
  N   N5        1.0  0.6112868086820799  0.47927563045199045  0.39338173037243396  1.0000
  N   N6        1.0  0.38871319184582037  0.9792756301677787  0.10661826981120973  1.0000
  N   N7        1.0  0.3887131913310187  0.5207243697280323  0.6066182692335068  1.0000
  N   N8        1.0  0.6112868083926482  0.02072436926379786  0.8933817307044244  1.0000
  N   N9        1.0  0.39804082496719007  0.4916332581595179  0.14363039404924433  1.0000
  N   N10       1.0  0.6019591748994855  0.9916332578753062  0.3563696061416802  1.0000
  N   N11       1.0  0.6019591752712785  0.5083667420205049  0.8563696064663899  1.0000
  N   N12       1.0  0.3980408244523885  0.008366741556270426  0.6436303934715415  1.0000
  N   N13       1.0  0.48876308641604727  0.4638721413488942  0.2061336817826504  1.0000
  N   N14       1.0  0.5112369134506284  0.9638721410646826  0.2938663184082741  1.0000
  N   N15       1.0  0.5112369135970514  0.5361278588311286  0.7938663178232903  1.0000
  N   N16       1.0  0.48876308678784014  0.03612785836689412  0.70613368210736  1.0000
  N   N17       1.0  0.35050918710601897  0.33575950759013684  0.2073169941462478  1.0000
  N   N18       1.0  0.6494908127606566  0.8357595073059252  0.2926830060446767  1.0000
  N   N19       1.0  0.6494908131324496  0.6642404925898859  0.7926830063693865  1.0000
  N   N20       1.0  0.3505091865912174  0.16424049212565148  0.7073169935685449  1.0000
  N   N21       1.0  0.24856238286493726  0.20155829077175091  0.22827657954501443  1.0000
  N   N22       1.0  0.7514376167763684  0.7015582904875391  0.2717234197362167  1.0000
  N   N23       1.0  0.7514376171481613  0.798441709408272  0.7717234200609265  1.0000
  N   N24       1.0  0.24856238257550564  0.29844170969248357  0.728276579877005  1.0000
  N   N25       1.0  0.08919506333572023  0.22026465767093845  0.11114219476206119  1.0000
  N   N26       1.0  0.9108049371921799  0.7202646573867267  0.38885780542158244  1.0000
  N   N27       1.0  0.9108049369027482  0.7797353425090844  0.888857805753573  1.0000
  N   N28       1.0  0.08919506282091866  0.279735342793296  0.6111421941843583  1.0000
  O   O1        1.0  0.0335224071237734  0.3526914913395367  0.9787869676450047  1.0000
  O   O2        1.0  0.966477593261118  0.8526914918037712  0.5212130322856459  1.0000
  O   O3        1.0  0.9664775928893252  0.6473085080920399  0.021213031960936157  1.0000
  O   O4        1.0  0.033522406751980524  0.14730850837625162  0.478786967320295  1.0000
  O   O5        1.0  0.1404982743193184  0.08545738734845612  0.24075085548623182  1.0000
  O   O6        1.0  0.8595017259832117  0.5854573870642444  0.2592491437877185  1.0000
  O   O7        1.0  0.8595017256937802  0.9145426128315666  0.7592491441197089  1.0000
  O   O8        1.0  0.14049827402988677  0.41454261311577834  0.7407508558182223  1.0000
  S   S1        1.0  0.48561534539803525  0.6160570711400143  0.35750072510217645  1.0000
  S   S2        1.0  0.5143846542432705  0.11605707142422605  0.14249927417905475  1.0000
  S   S3        1.0  0.5143846539538388  0.38394292904000843  0.6424992745110453  1.0000
  S   S4        1.0  0.48561534576982807  0.8839429287557967  0.857500725426886  1.0000
  Br  Br1       1.0  0.5726587646156648  0.17190970658889407  0.532059034824372  1.0000
  Br  Br2       1.0  0.4273412351080021  0.6719097070531286  0.9679409651135593  1.0000
  Br  Br3       1.0  0.42734123539743374  0.8280902935911287  0.46794096478156877  1.0000
  Br  Br4       1.0  0.5726587651304665  0.32809029312689425  0.03205903540207487  1.0000
