data_image0
_chemical_formula_structural       H37C28N4O4Cl3
_chemical_formula_sum              "H37 C28 N4 O4 Cl3"
_cell_length_a       7.313270222486548
_cell_length_b       8.248514635159248
_cell_length_c       13.224412477825531
_cell_angle_alpha    85.83606058276541
_cell_angle_beta     88.27063872222234
_cell_angle_gamma    66.72734001432879

_space_group_name_H-M_alt    "P 1"
_space_group_IT_number       1

loop_
  _space_group_symop_operation_xyz
  'x, y, z'

loop_
  _atom_site_type_symbol
  _atom_site_label
  _atom_site_symmetry_multiplicity
  _atom_site_fract_x
  _atom_site_fract_y
  _atom_site_fract_z
  _atom_site_occupancy
  H   H1        1.0  0.6713598794141328  0.8084707252051384  0.8270812938010277  1.0000
  H   H2        1.0  0.32864012205957743  0.1915292736623019  0.17291870646233232  1.0000
  H   H3        1.0  0.4714589147329279  0.6512103125421672  0.5092458080588215  1.0000
  H   H4        1.0  0.5285410861460687  0.3487896877337265  0.49075419144718807  1.0000
  H   H5        1.0  0.3647189963658543  0.969114598309112  0.5399339036981141  1.0000
  H   H6        1.0  0.6352810051039579  0.03088540064716168  0.4600660958070733  1.0000
  H   H7        1.0  0.7211517081656889  0.3665703071869483  0.8262856856299684  1.0000
  H   H8        1.0  0.2788482913509977  0.6334296929971351  0.17371431463736448  1.0000
  H   H9        1.0  0.8299233680056493  0.5042575302645325  0.8763938845355752  1.0000
  H   H10       1.0  0.1700766315071392  0.49574247000838406  0.1236061149735852  1.0000
  H   H11       1.0  0.9425479745529308  0.37226081678423373  0.7728947990577988  1.0000
  H   H12       1.0  0.05745202496375573  0.6277391833998496  0.22710520120953412  1.0000
  H   H13       1.0  0.47166574965823865  0.12263302129242662  0.788496938647137  1.0000
  H   H14       1.0  0.5283342504492636  0.8773669775720364  0.21150306161937388  1.0000
  H   H15       1.0  0.29148348986465145  0.18380697738372848  0.690107507997542  1.0000
  H   H16       1.0  0.7085165110182432  0.8161930228033321  0.3098924922666401  1.0000
  H   H17       1.0  0.5350492754099508  0.1706670412756064  0.6619429598734292  1.0000
  H   H18       1.0  0.46495072547294375  0.8293329589114541  0.338057040390753  1.0000
  H   H19       1.0  0.24488820644499124  0.5163905821146983  0.7782927484003597  1.0000
  H   H20       1.0  0.7551117930716955  0.48360941806938484  0.22170725186697318  1.0000
  H   H21       1.0  0.8872832552044398  0.1527084706232195  0.6892986369499937  1.0000
  H   H22       1.0  0.11271674431224679  0.8472915295608638  0.3107013633173392  1.0000
  H   H23       1.0  0.05469955325893035  0.05544769179078673  0.8610977951963584  1.0000
  H   H24       1.0  0.9453004462577564  0.9445523083932965  0.13890220507097448  1.0000
  H   H25       1.0  0.4099228845944708  0.7177019018056399  0.9339099806966153  1.0000
  H   H26       1.0  0.5900771149222157  0.2822980983784435  0.06609001957071743  1.0000
  H   H27       1.0  0.28581370867936934  0.5699834491053339  0.951739445372694  1.0000
  H   H28       1.0  0.7141862908334191  0.43001655116758275  0.048260554136466384  1.0000
  H   H29       1.0  0.17563727992001893  0.7887269838540789  0.9946915621154994  1.0000
  H   H30       1.0  0.8243627195966677  0.21127301633000442  0.0053084381518334455  1.0000
  H   H31       1.0  0.1561115178095583  0.6268543598437871  0.517038205144032  1.0000
  H   H32       1.0  0.8438884817071283  0.3731456403402962  0.48296179512330084  1.0000
  H   H33       1.0  0.9282760897436119  0.6271440295947756  0.5641049546486244  1.0000
  H   H34       1.0  0.07172391113928289  0.37285597059228487  0.4358950456155578  1.0000
  H   H35       1.0  0.15709963288154527  0.4622772524125448  0.6134658428257862  1.0000
  H   H36       1.0  0.8429003666312432  0.537722747860372  0.38653415668337404  1.0000
  H   H37       1.0  4.6351860164531315e-10  0.9999999998514708  0.5000000000931544  1.0000
  C   C1        1.0  0.6244752818820983  0.7806683503676092  0.7551265790325085  1.0000
  C   C2        1.0  0.3755247176345883  0.2193316498164741  0.24487342123482445  1.0000
  C   C3        1.0  0.5126003453155746  0.6947275400983158  0.5778037759299731  1.0000
  C   C4        1.0  0.4873996547919276  0.30527245876614734  0.42219622433653764  1.0000
  C   C5        1.0  0.5104400862760562  0.9188062613057507  0.6869788905874041  1.0000
  C   C6        1.0  0.48955991460683856  0.08119373888130972  0.3130211096767781  1.0000
  C   C7        1.0  0.6805318735277314  0.6037226426853899  0.7358115687066524  1.0000
  C   C8        1.0  0.31946812735516317  0.39627735750167054  0.2641884315575298  1.0000
  C   C9        1.0  0.4553469476083512  0.8702459466185839  0.5969289279736719  1.0000
  C   C10       1.0  0.5446530519083356  0.12975405356549943  0.40307107229366096  1.0000
  C   C11       1.0  0.7997683045530475  0.4541733471734084  0.8070970342009224  1.0000
  C   C12       1.0  0.20023169495974089  0.5458266530995083  0.19290296530823794  1.0000
  C   C13       1.0  0.4496586538348969  0.10880018395271984  0.7084526326030406  1.0000
  C   C14       1.0  0.5503413470440996  0.8911998163231739  0.2915473669029689  1.0000
  C   C15       1.0  0.08006460774062417  0.7175464486007656  0.6667809006525334  1.0000
  C   C16       1.0  0.9199353917760625  0.28245355158331775  0.3332190996147995  1.0000
  C   C17       1.0  0.16391861188779489  0.7755314357971564  0.8340349054183053  1.0000
  C   C18       1.0  0.8360813882158092  0.22446856315613992  0.16596509409003285  1.0000
  C   C19       1.0  0.1694579385258845  0.6586225425390921  0.7613446542704794  1.0000
  C   C20       1.0  0.8305420609869041  0.34137745773382433  0.23865534523868084  1.0000
  C   C21       1.0  0.972265644140147  0.014542562200956255  0.7148091238536911  1.0000
  C   C22       1.0  0.02773435537653957  0.985457437983127  0.2851908764136417  1.0000
  C   C23       1.0  0.06220450637408551  0.9572169235422254  0.8083704569077376  1.0000
  C   C24       1.0  0.9377954931426011  0.042783076641857896  0.19162954335959534  1.0000
  C   C25       1.0  0.2638635625535413  0.7084351340985631  0.9342627612314358  1.0000
  C   C26       1.0  0.7361364369631453  0.29156486608552024  0.06573723903589708  1.0000
  C   C27       1.0  0.08116531720167161  0.6010507377051832  0.586274259784061  1.0000
  C   C28       1.0  0.9188346823150151  0.3989492624789  0.4137257404832719  1.0000
  N   N1        1.0  0.6236244900616046  0.5623495760903569  0.6462879234612834  1.0000
  N   N2        1.0  0.3763755100458979  0.4376504227741062  0.35371207680522737  1.0000
  N   N3        1.0  0.9839273195482215  0.8956223620191515  0.6466298248961164  1.0000
  N   N4        1.0  0.016072681330775013  0.10437763825674237  0.3533701746098931  1.0000
  O   O1        1.0  0.6755914165170669  0.3963105572934909  0.6262282210406265  1.0000
  O   O2        1.0  0.3244085843658279  0.6036894428935696  0.37377177922355564  1.0000
  O   O3        1.0  0.8919109619014256  0.9558984042912012  0.5561884549270462  1.0000
  O   O4        1.0  0.10808903898146927  0.04410159589585941  0.443811545337136  1.0000
  Cl  Cl1       1.0  0.5000000006630252  2.5298464740874275e-11  0.9999999996393677  1.0000
  Cl  Cl2       1.0  0.7780356236566178  0.7438378077957524  0.03228730331939944  1.0000
  Cl  Cl3       1.0  0.22196437586006873  0.25616219238833093  0.9677126969479334  1.0000
