data_image0
_chemical_formula_structural       H28C28N4O2S2
_chemical_formula_sum              "H28 C28 N4 O2 S2"
_cell_length_a       7.7747042733165985
_cell_length_b       9.14422305497056
_cell_length_c       9.57460056090197
_cell_angle_alpha    74.11643498014077
_cell_angle_beta     83.45988098086406
_cell_angle_gamma    71.55645414021492

_space_group_name_H-M_alt    "P 1"
_space_group_IT_number       1

loop_
  _space_group_symop_operation_xyz
  'x, y, z'

loop_
  _atom_site_type_symbol
  _atom_site_label
  _atom_site_symmetry_multiplicity
  _atom_site_fract_x
  _atom_site_fract_y
  _atom_site_fract_z
  _atom_site_occupancy
  H   H1        1.0  0.6086451519909762  0.14731256082294264  0.026057253720358362  1.0000
  H   H2        1.0  0.39135484750876937  0.8526874393948092  0.9739427459841214  1.0000
  H   H3        1.0  0.5493110142972334  0.45776174785786006  0.6766810933827204  1.0000
  H   H4        1.0  0.4506889852025121  0.5422382523598918  0.3233189063217595  1.0000
  H   H5        1.0  0.6903558020017017  0.3929655010709819  0.44893435758807837  1.0000
  H   H6        1.0  0.30964419751747857  0.6070344991454469  0.5510656431592669  1.0000
  H   H7        1.0  0.8427272168463665  0.11080953517584571  0.4411442120154256  1.0000
  H   H8        1.0  0.1572727843546748  0.8891904638532369  0.5588557878258952  1.0000
  H   H9        1.0  0.8483642741185321  0.8933074070043254  0.6666676727650598  1.0000
  H   H10       1.0  0.15163572669426245  0.10669259321472509  0.33333232784664407  1.0000
  H   H11       1.0  0.7001787792830444  0.9567652657328528  0.8927036893541606  1.0000
  H   H12       1.0  0.29982122152975005  0.04323473448619787  0.10729631125754327  1.0000
  H   H13       1.0  0.07224082447218481  0.5742497110589341  0.9432913497898865  1.0000
  H   H14       1.0  0.9277591750275609  0.4257502891588177  0.0567086499145935  1.0000
  H   H15       1.0  0.12623574865499443  0.6611157073045364  0.7587357126191334  1.0000
  H   H16       1.0  0.8737642508447511  0.3388842929132155  0.24126428708534653  1.0000
  H   H17       1.0  0.23954833961351246  0.6799004738639483  0.9037259982784297  1.0000
  H   H18       1.0  0.7604516598862333  0.32009952635380345  0.09627400142605012  1.0000
  H   H19       1.0  0.9532953356890702  0.8768060135661869  0.02897632080334136  1.0000
  H   H20       1.0  0.04670466381067532  0.1231939866515649  0.9710236789011385  1.0000
  H   H21       1.0  0.06849230134204641  0.6272170379476582  0.21678757335573015  1.0000
  H   H22       1.0  0.9315076981771337  0.3727829622687707  0.7832124273916152  1.0000
  H   H23       1.0  0.6523667768552421  0.8269667643811947  0.5109162720316773  1.0000
  H   H24       1.0  0.34763322395755236  0.17303323583785593  0.4890837285800265  1.0000
  H   H25       1.0  0.5542593941661258  0.07208844464026667  0.3064894976701132  1.0000
  H   H26       1.0  0.44574060574130114  0.9279115543861941  0.6935105023068492  1.0000
  H   H27       1.0  0.8455532071882137  0.5662629186067861  0.6024305816990365  1.0000
  H   H28       1.0  0.1544467936051463  0.4337370816135872  0.39756941786980204  1.0000
  C   C1        1.0  0.4027390088537596  0.3556594499878288  0.9694627720193493  1.0000
  C   C2        1.0  0.5972609906459859  0.6443405502299231  0.030537227685130695  1.0000
  C   C3        1.0  0.6150773377232541  0.21173812010071177  0.800831925780565  1.0000
  C   C4        1.0  0.38492266218417276  0.7882618789257492  0.19916807419639732  1.0000
  C   C5        1.0  0.6119173507547818  0.3342585298758782  0.6742630149489469  1.0000
  C   C6        1.0  0.38808264874496395  0.6657414703418735  0.32573698475553303  1.0000
  C   C7        1.0  0.6929696382565422  0.2967134398153241  0.5459681791836466  1.0000
  C   C8        1.0  0.30703036255625227  0.7032865604037265  0.4540318214280573  1.0000
  C   C9        1.0  0.7800612802210544  0.13907372071420182  0.5418559917797571  1.0000
  C   C10       1.0  0.21993872057230562  0.8609262795061716  0.4581440077890814  1.0000
  C   C11       1.0  0.7848002855262518  0.017529710809441632  0.66804801299856  1.0000
  C   C12       1.0  0.21519971397349388  0.9824702894083102  0.3319519867059199  1.0000
  C   C13       1.0  0.7021541692054208  0.05299351880620195  0.7963099626841567  1.0000
  C   C14       1.0  0.2978458316073736  0.9470064814128486  0.2036900379275471  1.0000
  C   C15       1.0  0.18042412697677973  0.6028530093828209  0.8673536684307441  1.0000
  C   C16       1.0  0.8195758738165803  0.3971469908375526  0.13264633113809424  1.0000
  C   C17       1.0  0.8895519831421869  0.8616244865235978  0.13763498009198627  1.0000
  C   C18       1.0  0.1104480176706078  0.13837551369545273  0.8623650205197176  1.0000
  C   C19       1.0  0.9540978580104863  0.7216403309717406  0.243618386538576  1.0000
  C   C20       1.0  0.04590214148925925  0.27835966924601113  0.7563816131659039  1.0000
  C   C21       1.0  0.8700255603200595  0.7049072823933165  0.3830349928620707  1.0000
  C   C22       1.0  0.129974440880982  0.295092716635766  0.6169650069792502  1.0000
  C   C23       1.0  0.7232164012771964  0.8337959205528396  0.40555129162830805  1.0000
  C   C24       1.0  0.27678359951616355  0.16620407966753378  0.5944487079405304  1.0000
  C   C25       1.0  0.6679958716879829  0.9698316380460817  0.29279704288400754  1.0000
  C   C26       1.0  0.33200412781176264  0.030168362171669964  0.7072029568204724  1.0000
  C   C27       1.0  0.9277141177459929  0.5640904481575968  0.5022217806569295  1.0000
  C   C28       1.0  0.0722858817731873  0.435909552058832  0.4977782200904158  1.0000
  N   N1        1.0  0.5420070678699828  0.23615037603197073  0.9373506813483288  1.0000
  N   N2        1.0  0.4579929320374442  0.7638496229944902  0.06264931862863359  1.0000
  N   N3        1.0  0.7481399731956604  0.9850559331504228  0.1598341672370306  1.0000
  N   N4        1.0  0.25186002761713405  0.014944067068627716  0.8401658333746733  1.0000
  O   O1        1.0  0.3192962587077837  0.46061097779160404  0.8508246485687871  1.0000
  O   O2        1.0  0.680703740791962  0.5393890224261476  0.14917535113569283  1.0000
  S   S1        1.0  0.3387293323913326  0.3661824574800895  0.14033258324233538  1.0000
  S   S2        1.0  0.6612706675160942  0.6338175415463715  0.859667416734627  1.0000
