data_image0
_chemical_formula_structural       H32C30N4O2S2
_chemical_formula_sum              "H32 C30 N4 O2 S2"
_cell_length_a       7.818191305589691
_cell_length_b       9.234731319397056
_cell_length_c       9.813971073407757
_cell_angle_alpha    97.95441408324666
_cell_angle_beta     109.6637717641629
_cell_angle_gamma    92.74570775338117

_space_group_name_H-M_alt    "P 1"
_space_group_IT_number       1

loop_
  _space_group_symop_operation_xyz
  'x, y, z'

loop_
  _atom_site_type_symbol
  _atom_site_label
  _atom_site_symmetry_multiplicity
  _atom_site_fract_x
  _atom_site_fract_y
  _atom_site_fract_z
  _atom_site_occupancy
  H   H1        1.0  0.6044621556747721  0.5449136475032808  0.8771976619153237  1.0000
  H   H2        1.0  0.3955378448964205  0.4550863528297974  0.12280233807892593  1.0000
  H   H3        1.0  0.531384428470082  0.23587358912150425  0.5594004069408148  1.0000
  H   H4        1.0  0.46861557210111066  0.764126411211574  0.44059959305343477  1.0000
  H   H5        1.0  0.6574798318120556  0.001536930403467176  0.6024523604561028  1.0000
  H   H6        1.0  0.34252016875913716  0.998463069929611  0.39754763953814676  1.0000
  H   H7        1.0  0.8203488818319808  0.9565272310682713  0.8567452799384712  1.0000
  H   H8        1.0  0.17965111872188283  0.043472769259828854  0.14325472106935294  1.0000
  H   H9        1.0  0.8514231108152834  0.15141696220620487  0.06795227859292656  1.0000
  H   H10       1.0  0.14857688975590924  0.8485830381268733  0.932047721401323  1.0000
  H   H11       1.0  0.718502761671516  0.3848412677337808  0.02718191973347171  1.0000
  H   H12       1.0  0.28149723889967665  0.6151587325992973  0.972818080260778  1.0000
  H   H13       1.0  0.24473207589140025  0.5353870950907765  0.3922559491916994  1.0000
  H   H14       1.0  0.7552679233201917  0.46461290523032917  0.6077440504239449  1.0000
  H   H15       1.0  0.07862789365889807  0.4530444438578628  0.45283211751961927  1.0000
  H   H16       1.0  0.9213721069122948  0.5469555564752155  0.5471678824746303  1.0000
  H   H17       1.0  0.062209891883189074  0.3222005839497896  0.20665291294278337  1.0000
  H   H18       1.0  0.9377901086880037  0.6777994163832886  0.7933470870514663  1.0000
  H   H19       1.0  0.1180270446134794  0.20394812346953706  0.34046249241731563  1.0000
  H   H20       1.0  0.8819729545981126  0.7960518768515686  0.6595375071983287  1.0000
  H   H21       1.0  0.29118901997455354  0.2805536616101574  0.2819326520533809  1.0000
  H   H22       1.0  0.7088109804558931  0.7194463376189776  0.7180673487737762  1.0000
  H   H23       1.0  0.9263830477481441  0.5472397724639816  0.16400783258345364  1.0000
  H   H24       1.0  0.07361695282304864  0.4527602278690965  0.8359921674107961  1.0000
  H   H25       1.0  0.04395126251211285  0.7243305067707643  0.3952545463778892  1.0000
  H   H26       1.0  0.9560487380590798  0.2756694935623139  0.6047454536163603  1.0000
  H   H27       1.0  0.6665607840464117  0.019244454144896263  0.1814024821137858  1.0000
  H   H28       1.0  0.3334392151651803  0.9807555461762093  0.8185975175018584  1.0000
  H   H29       1.0  0.5646188151625402  0.8267342120726555  0.956645376721147  1.0000
  H   H30       1.0  0.43538118526790653  0.17326578715647953  0.043354624106010174  1.0000
  H   H31       1.0  0.8479277861121274  0.09674512512045175  0.43344938097990393  1.0000
  H   H32       1.0  0.15207221433564835  0.9032548741136613  0.5665506188336789  1.0000
  C   C1        1.0  0.40956811533631715  0.5093287398239809  0.6729780131890416  1.0000
  C   C2        1.0  0.5904318852348757  0.49067126050909743  0.32702198680520794  1.0000
  C   C3        1.0  0.6164809519441682  0.32875616634341387  0.790891753427981  1.0000
  C   C4        1.0  0.3835190486270244  0.6712438339896643  0.20910824656626856  1.0000
  C   C5        1.0  0.5994828321180983  0.2188018830012007  0.6711331837570148  1.0000
  C   C6        1.0  0.40051716843576524  0.7811981173268994  0.32886681725080924  1.0000
  C   C7        1.0  0.6725424226187041  0.08604588842513813  0.696184915791985  1.0000
  C   C8        1.0  0.3274575765755589  0.9139541118909895  0.30381508483723363  1.0000
  C   C9        1.0  0.7647628937166406  0.06067475095378495  0.8380183442109336  1.0000
  C   C10       1.0  0.23523710683722318  0.9393252493743153  0.16198165679689044  1.0000
  C   C11       1.0  0.7838822050136358  0.17052461148378553  0.9563160365860761  1.0000
  C   C12       1.0  0.21611779418062713  0.829475388832342  0.043683964043142474  1.0000
  C   C13       1.0  0.7108478557498444  0.30302522215150285  0.9336042962683864  1.0000
  C   C14       1.0  0.28915214480401924  0.6969747781765971  0.06639570473943762  1.0000
  C   C15       1.0  0.20097694281929074  0.43466917478387346  0.4243641494604937  1.0000
  C   C16       1.0  0.7990230577345728  0.5653308255442266  0.5756358515473303  1.0000
  C   C17       1.0  0.1672183598117235  0.3018669161895272  0.30709812259221814  1.0000
  C   C18       1.0  0.8327816407594693  0.6981330841435509  0.6929018774020316  1.0000
  C   C19       1.0  0.8714681450568622  0.6533600994442874  0.17143243046925388  1.0000
  C   C20       1.0  0.12853185549700158  0.34663990088381263  0.8285675705385702  1.0000
  C   C21       1.0  0.9376384919120052  0.7530318598300741  0.30111217308998245  1.0000
  C   C22       1.0  0.06236150729958692  0.2469681404910316  0.6988878265256617  1.0000
  C   C23       1.0  0.8658227176224289  0.8896547009994797  0.3087889538584033  1.0000
  C   C24       1.0  0.13417728294876388  0.11034529933359842  0.6912110461358463  1.0000
  C   C25       1.0  0.7291130333228256  0.9162527502257972  0.18185483701827146  1.0000
  C   C26       1.0  0.27088696712495014  0.08374724900831591  0.8181451627953112  1.0000
  C   C27       1.0  0.6714304332298741  0.8094382082642815  0.05660803528305548  1.0000
  C   C28       1.0  0.3285695658583009  0.19056179095785902  0.9433919641519221  1.0000
  C   C29       1.0  0.9273345923955068  0.002044521699355817  0.43897108857023276  1.0000
  C   C30       1.0  0.07266540817568594  0.9979554786337224  0.5610289114240169  1.0000
  N   N1        1.0  0.5456492718040168  0.4665015463720261  0.782170166832345  1.0000
  N   N2        1.0  0.4543507286437589  0.5334984528620871  0.21782983298123776  1.0000
  N   N3        1.0  0.7391211784890831  0.678631963619797  0.0497209725558204  1.0000
  N   N4        1.0  0.26087882208210955  0.32136803671328107  0.9502790274384292  1.0000
  O   O1        1.0  0.34545573076678193  0.40588375492797263  0.5528452414104209  1.0000
  O   O2        1.0  0.6545442684448102  0.5941162453931329  0.44715475820522327  1.0000
  S   S1        1.0  0.33069971554905386  0.674167251602664  0.68822253088858  1.0000
  S   S2        1.0  0.6693002850221389  0.3258327487304141  0.31177746910566956  1.0000
