data_image0
_chemical_formula_structural       H76C72N20O8S4
_chemical_formula_sum              "H76 C72 N20 O8 S4"
_cell_length_a       22.151206155748035
_cell_length_b       6.877919957881214
_cell_length_c       11.92099842739302
_cell_angle_alpha    90.0
_cell_angle_beta     105.74788788547293
_cell_angle_gamma    90.0

_space_group_name_H-M_alt    "P 1"
_space_group_IT_number       1

loop_
  _space_group_symop_operation_xyz
  'x, y, z'

loop_
  _atom_site_type_symbol
  _atom_site_label
  _atom_site_symmetry_multiplicity
  _atom_site_fract_x
  _atom_site_fract_y
  _atom_site_fract_z
  _atom_site_occupancy
  H   H1        1.0  0.15323579556738162  0.5902477834665887  0.09562944443616458  1.0000
  H   H2        1.0  0.15323579532264872  0.4097522168414675  0.5956294441123671  1.0000
  H   H3        1.0  0.653235795392154  0.09024778331256064  0.09562944430284936  1.0000
  H   H4        1.0  0.6532357956164667  0.9097522169954957  0.5956294442127316  1.0000
  H   H5        1.0  0.048074340519301595  0.7472520662458054  0.8037292925028587  1.0000
  H   H6        1.0  0.048074340764034496  0.2527479326083229  0.30372929282665617  1.0000
  H   H7        1.0  0.5480743408131197  0.2472520660917773  0.8037292926032231  1.0000
  H   H8        1.0  0.548074340588807  0.752747932762351  0.3037292926933409  1.0000
  H   H9        1.0  0.019219337371670368  0.46316796786064285  0.6737408853942131  1.0000
  H   H10       1.0  0.019219337147357705  0.5368320324474134  0.17374088548433075  1.0000
  H   H11       1.0  0.5192193371964429  0.9631679680146711  0.6737408852608977  1.0000
  H   H12       1.0  0.5192193374411758  0.03683203229338528  0.17374088558469522  1.0000
  H   H13       1.0  0.9325414441935084  0.24246975396813744  0.6896782389026573  1.0000
  H   H14       1.0  0.9325414439675924  0.7575302463399188  0.18967823815311555  1.0000
  H   H15       1.0  0.432541443898087  0.7424697541221655  0.6896782379626332  1.0000
  H   H16       1.0  0.43254144414282  0.2575302461858907  0.18967823828643077  1.0000
  H   H17       1.0  0.8763964146101499  0.3073786846817667  0.8409626597603411  1.0000
  H   H18       1.0  0.8763964143858375  0.6926213156262895  0.3409626598504589  1.0000
  H   H19       1.0  0.37639641431633203  0.8073786848357949  0.8409626596599767  1.0000
  H   H20       1.0  0.376396414561065  0.19262131547226138  0.34096265998377423  1.0000
  H   H21       1.0  0.9070125227781382  0.5854478904462911  0.9757178622819528  1.0000
  H   H22       1.0  0.9070125225522223  0.4145521084078372  0.47571786153241097  1.0000
  H   H23       1.0  0.40701252248271685  0.08544789174619093  0.9757178613419286  1.0000
  H   H24       1.0  0.40701252272744975  0.9145521085618653  0.47571786166572627  1.0000
  H   H25       1.0  0.0919663669111543  0.9505982709944352  0.9469858766866488  1.0000
  H   H26       1.0  0.0919663671558872  0.04940172931362111  0.44698587701044623  1.0000
  H   H27       1.0  0.5919663672049724  0.45059827084040704  0.9469858767870132  1.0000
  H   H28       1.0  0.5919663669806597  0.5494017294676492  0.446985876877131  1.0000
  H   H29       1.0  0.02790565319774865  0.09637691250542005  0.8675354106866024  1.0000
  H   H30       1.0  0.027905652971832697  0.9036230878026363  0.3675354099370608  1.0000
  H   H31       1.0  0.5279056530225211  0.5963769126594483  0.8675354105532873  1.0000
  H   H32       1.0  0.5279056532656508  0.4036230876486081  0.3675354100374253  1.0000
  H   H33       1.0  0.025216854307344962  0.2634604256950696  0.05430715370495671  1.0000
  H   H34       1.0  0.025216854531657625  0.7365395746129867  0.5543071536148388  1.0000
  H   H35       1.0  0.5252168541321175  0.7634604258490977  0.05430715357164149  1.0000
  H   H36       1.0  0.5252168543564302  0.23653957445895848  0.5543071534815237  1.0000
  H   H37       1.0  0.08973623439691594  0.1254917511813979  0.1322826638909569  1.0000
  H   H38       1.0  0.08973623462283191  0.8745082491266584  0.6322826646404986  1.0000
  H   H39       1.0  0.5897362346923373  0.625491751335426  0.1322826648309809  1.0000
  H   H40       1.0  0.5897362344476045  0.37450824897263024  0.6322826645071834  1.0000
  H   H41       1.0  0.156408068860979  0.6989507350243906  0.2742894749004368  1.0000
  H   H42       1.0  0.15640806908529167  0.30104926528366566  0.774289474810319  1.0000
  H   H43       1.0  0.6564080691547971  0.1989507348703625  0.2742894750008013  1.0000
  H   H44       1.0  0.6564080689100642  0.8010492654376938  0.7742894746770037  1.0000
  H   H45       1.0  0.2033650004482234  0.87897778209422  0.3601175519892052  1.0000
  H   H46       1.0  0.20336500067413937  0.1210222182138363  0.8601175527387469  1.0000
  H   H47       1.0  0.7033650007436447  0.3789777819401918  0.36011755292922926  1.0000
  H   H48       1.0  0.7033650004989118  0.6210222183678644  0.8601175526054317  1.0000
  H   H49       1.0  0.1699510517465996  0.6028527993043576  0.8999849846240225  1.0000
  H   H50       1.0  0.1699510519897292  0.3971472010036985  0.39998498410816047  1.0000
  H   H51       1.0  0.6699510520404176  0.10285279915032962  0.8999849847243869  1.0000
  H   H52       1.0  0.6699510518161049  0.8971472011577267  0.39998498481450484  1.0000
  H   H53       1.0  0.20614783395421357  0.7819790347860993  0.8300426998950523  1.0000
  H   H54       1.0  0.2061478337299009  0.218020965521957  0.33004269998517005  1.0000
  H   H55       1.0  0.706147833778986  0.28197903463207113  0.830042699761737  1.0000
  H   H56       1.0  0.7061478335546734  0.7180209656759851  0.33004269985185475  1.0000
  H   H57       1.0  0.274298984285611  0.37812673975943883  0.27631602005052613  1.0000
  H   H58       1.0  0.2742989840408781  0.6218732605486175  0.7763160197267286  1.0000
  H   H59       1.0  0.7742989841103834  0.8781267399134669  0.2763160199172109  1.0000
  H   H60       1.0  0.774298984334696  0.12187326039458933  0.7763160198270931  1.0000
  H   H61       1.0  0.3356163564040205  0.6832140369146699  0.286682041096118  1.0000
  H   H62       1.0  0.3356163566283331  0.3167859633933864  0.7866820410060001  1.0000
  H   H63       1.0  0.8356163566978384  0.18321403676064174  0.2866820411964825  1.0000
  H   H64       1.0  0.8356163564531057  0.8167859635474145  0.786682040872685  1.0000
  H   H65       1.0  0.38128960138392454  0.7724435341693978  0.1260944390170742  1.0000
  H   H66       1.0  0.3812896011391917  0.22755646613865851  0.6260944386932766  1.0000
  H   H67       1.0  0.8812896012086973  0.27244353401536964  0.12609443888375896  1.0000
  H   H68       1.0  0.8812896014346131  0.7275564662926867  0.6260944396333007  1.0000
  H   H69       1.0  0.365869896744416  0.5543660079426954  0.9536020841777859  1.0000
  H   H70       1.0  0.3658698965201034  0.4456339923653609  0.4536020842679038  1.0000
  H   H71       1.0  0.8658698965691884  0.05436600778866725  0.9536020840444708  1.0000
  H   H72       1.0  0.8658698968139215  0.9456339925193891  0.45360208436826827  1.0000
  H   H73       1.0  0.30358423086487246  0.2503695696584523  0.9421257265855909  1.0000
  H   H74       1.0  0.30358423110800203  0.7496304306496039  0.44212572606972894  1.0000
  H   H75       1.0  0.8035842311586904  0.7503695698124805  0.9421257266859554  1.0000
  H   H76       1.0  0.8035842309327744  0.24963043049557582  0.44212572593641364  1.0000
  C   C1        1.0  0.9792911887492268  0.687037570797158  0.8987044656468388  1.0000
  C   C2        1.0  0.9792911889939597  0.3129624295108983  0.39870446597063636  1.0000
  C   C3        1.0  0.4792911889244543  0.18703757064312984  0.8987044657801542  1.0000
  C   C4        1.0  0.4792911887001417  0.8129624282109985  0.3987044658702719  1.0000
  C   C5        1.0  0.01015371689371878  0.6527152056859592  0.8122610695495173  1.0000
  C   C6        1.0  0.010153717138451679  0.3472847931681691  0.31226106987331476  1.0000
  C   C7        1.0  0.5101537171875368  0.15271520553193102  0.8122610696498818  1.0000
  C   C8        1.0  0.5101537169632242  0.8472847933221973  0.3122610697399995  1.0000
  C   C9        1.0  0.9935266551350243  0.4924272106596815  0.7381573072230138  1.0000
  C   C10       1.0  0.9935266549107117  0.5075727896483748  0.2381573073131316  1.0000
  C   C11       1.0  0.4935266548412062  0.9924272093597817  0.7381573071226493  1.0000
  C   C12       1.0  0.4935266550859391  0.007572789494346649  0.2381573074464468  1.0000
  C   C13       1.0  0.945546291445246  0.3671399297263545  0.7476624217790695  1.0000
  C   C14       1.0  0.9455462912209335  0.6328600691277738  0.24766242186918738  1.0000
  C   C15       1.0  0.44554629115142796  0.8671399298803827  0.7476624216787051  1.0000
  C   C16       1.0  0.445546291396161  0.13286006897374567  0.24766242200250266  1.0000
  C   C17       1.0  0.9144430156458591  0.40227013500347925  0.8333772330156464  1.0000
  C   C18       1.0  0.9144430158905918  0.5977298653045771  0.3333772333394438  1.0000
  C   C19       1.0  0.41444301582108645  0.9022701351575074  0.8333772331489615  1.0000
  C   C20       1.0  0.4144430155967738  0.0977298651505489  0.33337723323907936  1.0000
  C   C21       1.0  0.9312440300232864  0.5595705829041969  0.9087298770599148  1.0000
  C   C22       1.0  0.9312440297973704  0.44042941594993146  0.40872987631037294  1.0000
  C   C23       1.0  0.43124403019691054  0.059570584204096694  0.9087298763535704  1.0000
  C   C24       1.0  0.43124402997259786  0.9404294161039596  0.4087298764436883  1.0000
  C   C25       1.0  0.05064157862510737  0.03289976640985912  0.952963542227711  1.0000
  C   C26       1.0  0.05064157886823697  0.9671002338981972  0.4529635417118488  1.0000
  C   C27       1.0  0.5506415789189254  0.5328997665638873  0.9529635423280755  1.0000
  C   C28       1.0  0.5506415786930094  0.467100233744169  0.4529635415785335  1.0000
  C   C29       1.0  0.06793532742697402  0.18940036638654034  0.046161073767504904  1.0000
  C   C30       1.0  0.0679353276512867  0.8105996339215159  0.5461610736773871  1.0000
  C   C31       1.0  0.567935327720792  0.6894003665405685  0.04616107386786934  1.0000
  C   C32       1.0  0.5679353274760591  0.31059963376748784  0.546161073544072  1.0000
  C   C33       1.0  0.110995538953755  0.3474222853178003  0.02578335270227656  1.0000
  C   C34       1.0  0.11099553917806765  0.652577714990256  0.5257833526121588  1.0000
  C   C35       1.0  0.6109955392475731  0.8474222854718284  0.025783352802641064  1.0000
  C   C36       1.0  0.6109955390028401  0.15257771483622784  0.5257833524788436  1.0000
  C   C37       1.0  0.28425600905532256  0.2943754132642914  0.10768499109298359  1.0000
  C   C38       1.0  0.284256008812193  0.7056245855898369  0.6076849916088457  1.0000
  C   C39       1.0  0.784256008880095  0.7943754134183195  0.10768499095966833  1.0000
  C   C40       1.0  0.7842560086369653  0.20562458543580878  0.6076849914755305  1.0000
  C   C41       1.0  0.29364989926094687  0.4177133664819567  0.20483008746361964  1.0000
  C   C42       1.0  0.2936498994868628  0.5822866338260996  0.7048300882131614  1.0000
  C   C43       1.0  0.7936498990857194  0.9177133666359849  0.20483008733030436  1.0000
  C   C44       1.0  0.7936498993116353  0.08228663367207137  0.7048300880798462  1.0000
  C   C45       1.0  0.3281633238031564  0.5885104995096407  0.2109276660846358  1.0000
  C   C46       1.0  0.3281633235584234  0.41148950079841556  0.7109276657608383  1.0000
  C   C47       1.0  0.8281633236279289  0.08851049935561256  0.21092766595132054  1.0000
  C   C48       1.0  0.8281633238522415  0.9114895009524437  0.7109276658612028  1.0000
  C   C49       1.0  0.3538161607257591  0.6395514293474088  0.12019008257682842  1.0000
  C   C50       1.0  0.35381616048102615  0.3604485709606475  0.6201900822530308  1.0000
  C   C51       1.0  0.8538161605505314  0.13955142919338068  0.12019008244351312  1.0000
  C   C52       1.0  0.8538161607748442  0.8604485711146755  0.6201900823533953  1.0000
  C   C53       1.0  0.34459622201841916  0.5180005716579367  0.023129610020248693  1.0000
  C   C54       1.0  0.3445962222443351  0.4819994286501197  0.5231296107697905  1.0000
  C   C55       1.0  0.8445962223122372  0.018000571503908484  0.023129610120613132  1.0000
  C   C56       1.0  0.8445962220691076  0.9819994273502198  0.5231296106364752  1.0000
  C   C57       1.0  0.31011167598909467  0.3470940945255516  0.016728287496709657  1.0000
  C   C58       1.0  0.3101116762134073  0.6529059043285768  0.5167282874065918  1.0000
  C   C59       1.0  0.8101116762829127  0.8470940946795797  0.0167282875970741  1.0000
  C   C60       1.0  0.8101116760381797  0.15290590417454858  0.5167282872732766  1.0000
  C   C61       1.0  0.24956964671963175  0.10906502468677834  0.10204079207581161  1.0000
  C   C62       1.0  0.2495696464748988  0.890934975621278  0.6020407917520141  1.0000
  C   C63       1.0  0.7495696465444042  0.6090650233868785  0.10204079194249634  1.0000
  C   C64       1.0  0.7495696467687168  0.39093497546724976  0.6020407918523786  1.0000
  C   C65       1.0  0.2013437330353934  0.88181527658667  0.18695263421294173  1.0000
  C   C66       1.0  0.20134373279066053  0.11818472226745834  0.6869526338891442  1.0000
  C   C67       1.0  0.7013437328601659  0.38181527643264185  0.18695263407962653  1.0000
  C   C68       1.0  0.7013437330844786  0.6181847224214865  0.6869526339895087  1.0000
  C   C69       1.0  0.20569549704035742  0.839953206111413  0.9980346307490398  1.0000
  C   C70       1.0  0.20569549681604476  0.16004679419664328  0.49803463083915755  1.0000
  C   C71       1.0  0.7056954968651299  0.3399532059573849  0.9980346306157245  1.0000
  C   C72       1.0  0.7056954971098628  0.6600467943506715  0.498034630939522  1.0000
  N   N1        1.0  0.2330039266991412  0.05313948290154153  0.19743855672354038  1.0000
  N   N2        1.0  0.23300392692345387  0.9468605174065148  0.6974385566334226  1.0000
  N   N3        1.0  0.7330039269929592  0.5531394830555697  0.19743855682390482  1.0000
  N   N4        1.0  0.7330039267482263  0.4468605172524866  0.6974385565001074  1.0000
  N   N5        1.0  0.18598044288844748  0.7739077762748121  0.08855871570704894  1.0000
  N   N6        1.0  0.18598044311276013  0.22609222403324408  0.5885587156169312  1.0000
  N   N7        1.0  0.6859804431822656  0.27390777612078404  0.0885587158074134  1.0000
  N   N8        1.0  0.6859804429375326  0.7260922241872723  0.5885587154836159  1.0000
  N   N9        1.0  0.237403509068455  0.00905547322175971  0.0011713305847664583  1.0000
  N   N10       1.0  0.23740350929276763  0.9909445270862965  0.5011713304946486  1.0000
  N   N11       1.0  0.7374035093622731  0.5090554733757878  0.001171330685130937  1.0000
  N   N12       1.0  0.7374035091191434  0.4909445269322684  0.501171331200993  1.0000
  N   N13       1.0  0.1840966662420949  0.8175679034410066  0.27905575926491866  1.0000
  N   N14       1.0  0.18409666646640754  0.18243209686704973  0.7790557591748009  1.0000
  N   N15       1.0  0.6840966660668674  0.3175679032869784  0.2790557591316034  1.0000
  N   N16       1.0  0.68409666629118  0.6824320970210779  0.7790557590414857  1.0000
  N   N17       1.0  0.19164786399849124  0.7345742333349872  0.8999294227006921  1.0000
  N   N18       1.0  0.19164786377417858  0.2654257669730691  0.39992942279080995  1.0000
  N   N19       1.0  0.6916478638232637  0.23457423318095905  0.899929422567377  1.0000
  N   N20       1.0  0.691647863598951  0.7654257656731692  0.3999294226574947  1.0000
  O   O1        1.0  0.12808429708469102  0.36493418291730423  0.9356349968243286  1.0000
  O   O2        1.0  0.12808429686037834  0.6350658173907521  0.43563499691444646  1.0000
  O   O3        1.0  0.6280842969094635  0.8649341816174044  0.9356349966910136  1.0000
  O   O4        1.0  0.6280842971541964  0.13506581723672392  0.43563499701481095  1.0000
  O   O5        1.0  0.12755513088555487  0.46701248628509767  0.11552802493107704  1.0000
  O   O6        1.0  0.12755513111147082  0.5329875125690307  0.6155280256806188  1.0000
  O   O7        1.0  0.6275551311793729  0.9670124864391259  0.1155280250314415  1.0000
  O   O8        1.0  0.6275551309362433  0.0329875124150025  0.6155280255473036  1.0000
  S   S1        1.0  0.9965561636861929  0.8771438133831497  0.00032765702842766986  1.0000
  S   S2        1.0  0.9965561639105057  0.12285618692490659  0.5003276569383098  1.0000
  S   S3        1.0  0.49655616386142043  0.37714381322912155  0.0003276571617428982  1.0000
  S   S4        1.0  0.4965561636166876  0.6228561870789346  0.5003276568379454  1.0000
