data_image0
_chemical_formula_structural       H50C50N6O4F24P4S4
_chemical_formula_sum              "H50 C50 N6 O4 F24 P4 S4"
_cell_length_a       10.467605041203159
_cell_length_b       12.241505193209477
_cell_length_c       13.749562141191879
_cell_angle_alpha    64.50571397299836
_cell_angle_beta     77.65078152755441
_cell_angle_gamma    65.46351464177698

_space_group_name_H-M_alt    "P 1"
_space_group_IT_number       1

loop_
  _space_group_symop_operation_xyz
  'x, y, z'

loop_
  _atom_site_type_symbol
  _atom_site_label
  _atom_site_symmetry_multiplicity
  _atom_site_fract_x
  _atom_site_fract_y
  _atom_site_fract_z
  _atom_site_occupancy
  H   H1        1.0  0.8869044488944126  0.05089498658687883  0.3662326871930196  1.0000
  H   H2        1.0  0.11309555095951586  0.9491050129629084  0.633767313175507  1.0000
  H   H3        1.0  0.8603199873168071  0.03235402928618777  0.5639320726970559  1.0000
  H   H4        1.0  0.13968001353938106  0.9676459706319199  0.4360679268641638  1.0000
  H   H5        1.0  0.6641629664219268  0.08562461882368978  0.8302367441979631  1.0000
  H   H6        1.0  0.3358370334320015  0.9143753807260975  0.1697632561705634  1.0000
  H   H7        1.0  0.4093645439477132  0.38480459741909384  0.0073531012927918575  1.0000
  H   H8        1.0  0.5906354559062152  0.6151954021306935  0.9926468990757348  1.0000
  H   H9        1.0  0.23955697788846117  0.37501454285367897  0.034973487915641546  1.0000
  H   H10       1.0  0.7604430219654673  0.6249854566961084  0.9650265124528851  1.0000
  H   H11       1.0  0.16349159999836865  0.26366688023154966  0.729172824209442  1.0000
  H   H12       1.0  0.8365083998555598  0.7363331193182374  0.27082717615908475  1.0000
  H   H13       1.0  0.5378082349840295  0.3590906003996028  0.31606747648021566  1.0000
  H   H14       1.0  0.46219176486989877  0.6409093991501846  0.6839325238883109  1.0000
  H   H15       1.0  0.14251323844276617  0.32263177931254383  0.2102002274955011  1.0000
  H   H16       1.0  0.8574867614571655  0.6773682206070031  0.7897997720665428  1.0000
  H   H17       1.0  0.3799402803142187  0.807824702756689  0.9459881093172953  1.0000
  H   H18       1.0  0.6200597195397094  0.19217529679309836  0.05401189105123148  1.0000
  H   H19       1.0  0.5322729845206308  0.36227847822978604  0.13688500527555808  1.0000
  H   H20       1.0  0.4677270153332977  0.6377215213200012  0.8631149950929686  1.0000
  H   H21       1.0  0.284536555990119  0.26136901931145884  0.8554540533160073  1.0000
  H   H22       1.0  0.7154634444321131  0.7386309815063556  0.14454594624147124  1.0000
  H   H23       1.0  0.45283575332229814  0.2736117058296297  0.8208787987319545  1.0000
  H   H24       1.0  0.5471642465316301  0.7263882937201578  0.17912120163657208  1.0000
  H   H25       1.0  0.1285053155172121  0.3215578140101882  0.3913597884979596  1.0000
  H   H26       1.0  0.8714946852929726  0.67844218553816  0.6086402118697429  1.0000
  H   H27       1.0  0.5528852949769832  0.3037227372036536  0.6526543381950562  1.0000
  H   H28       1.0  0.4471147048769452  0.6962772623461337  0.34734566217347035  1.0000
  H   H29       1.0  0.13338363039947262  0.3089686501241631  0.5420544856505637  1.0000
  H   H30       1.0  0.8666163690204995  0.691031350325331  0.45794551471422185  1.0000
  H   H31       1.0  0.5418986725711791  0.3479359472904976  0.46266198536891556  1.0000
  H   H32       1.0  0.4581013272827493  0.65206405225929  0.5373380149996111  1.0000
  H   H33       1.0  0.1826070111642753  0.9386301639036143  0.8531227269279272  1.0000
  H   H34       1.0  0.817392988689653  0.061369835646172946  0.14687727344059945  1.0000
  H   H35       1.0  0.041595825022624995  0.05585888863641189  0.8962756304214602  1.0000
  H   H36       1.0  0.9584041748313034  0.9441411109133754  0.10372436994706645  1.0000
  H   H37       1.0  0.16287596883048394  0.9152375905234558  0.9926480590862055  1.0000
  H   H38       1.0  0.8371240319797008  0.08476240902489238  0.007351941281496969  1.0000
  H   H39       1.0  0.8713732176157859  0.9747543349436552  0.7621015757531434  1.0000
  H   H40       1.0  0.12862678228414598  0.02524566497589173  0.23789842380890042  1.0000
  H   H41       1.0  0.005243984576082588  0.8348951642505226  0.8454541065177634  1.0000
  H   H42       1.0  0.9947560153238492  0.1651048356690242  0.15454589304428037  1.0000
  H   H43       1.0  0.8816898175059257  0.9551693152569257  0.8966333094064417  1.0000
  H   H44       1.0  0.1183101823480026  0.04483068429286166  0.10336669096208491  1.0000
  H   H45       1.0  0.9575756921148705  0.4140252308247193  0.8413586996258022  1.0000
  H   H46       1.0  0.04242430874131759  0.5859747690933883  0.15864129993541748  1.0000
  H   H47       1.0  0.01997500478344026  0.24646450671874223  0.9251584303269093  1.0000
  H   H48       1.0  0.9800249950704881  0.7535354928310452  0.07484157004161736  1.0000
  H   H49       1.0  0.995227990341691  0.36379138243459336  0.9783498920901801  1.0000
  H   H50       1.0  0.004772010034537569  0.6362086180134617  0.021650108273781242  1.0000
  C   C1        1.0  0.5645641334255801  0.00558979503850267  0.49439594316821006  1.0000
  C   C2        1.0  0.4354358664283484  0.9944102045112847  0.5056040572003165  1.0000
  C   C3        1.0  0.8004397066227334  0.03398560257669153  0.42239269131577073  1.0000
  C   C4        1.0  0.19956029284324237  0.9660143982425616  0.5776073082425321  1.0000
  C   C5        1.0  0.7870316414207298  0.023559315382956858  0.5250922884534032  1.0000
  C   C6        1.0  0.2129683584792021  0.9764406845365899  0.47490771110864066  1.0000
  C   C7        1.0  0.5870354006109739  0.8120550129547216  0.9170682692051679  1.0000
  C   C8        1.0  0.4129645988089982  0.18794498749477243  0.08293173115961751  1.0000
  C   C9        1.0  0.3385690363125723  0.3267995504224552  0.4831650067906852  1.0000
  C   C10       1.0  0.6614309644976124  0.673200449125893  0.5168349935770172  1.0000
  C   C11       1.0  0.6022651756880879  0.02419331612497122  0.8562359899306953  1.0000
  C   C12       1.0  0.39773482416584033  0.9758066834248162  0.1437640104378313  1.0000
  C   C13       1.0  0.33447458056518004  0.33752353454089123  0.3735242848707858  1.0000
  C   C14       1.0  0.665525420291008  0.6624764653772166  0.6264757146904338  1.0000
  C   C15       1.0  0.374709208009712  0.004491778674234639  0.8898485090521  1.0000
  C   C16       1.0  0.6252907928004726  0.9955082208741136  0.1101514913156026  1.0000
  C   C17       1.0  0.4558095973815026  0.08263665588390885  0.8565644465319714  1.0000
  C   C18       1.0  0.5441904025184291  0.917363344035638  0.14343555303007252  1.0000
  C   C19       1.0  0.3459059982777417  0.33023727277772463  0.0642419206306096  1.0000
  C   C20       1.0  0.6540940025784463  0.6697627271403831  0.9357580789306101  1.0000
  C   C21       1.0  0.24343076648597944  0.282884402688694  0.666795562985366  1.0000
  C   C22       1.0  0.756569233367949  0.7171155968610934  0.3332044373831607  1.0000
  C   C23       1.0  0.6687450508317815  0.8894525498079484  0.8855338795908246  1.0000
  C   C24       1.0  0.3312549495444472  0.11054745064010668  0.11446612077313671  1.0000
  C   C25       1.0  0.4472782257074211  0.35054673936491143  0.29790437129308406  1.0000
  C   C26       1.0  0.5527217737585546  0.6494532614543421  0.7020956282652188  1.0000
  C   C27       1.0  0.22578361550555454  0.3314317079171187  0.23834993112425681  1.0000
  C   C28       1.0  0.7742163839604213  0.6685682929021346  0.761650068434046  1.0000
  C   C29       1.0  0.4408305608763898  0.8700688595823326  0.9203625223648894  1.0000
  C   C30       1.0  0.5591694394998388  0.12993114086572247  0.079637477999072  1.0000
  C   C31       1.0  0.4467126484555115  0.3528780353218862  0.19699492564970617  1.0000
  C   C32       1.0  0.5532873523546731  0.6471219642264621  0.8030050747179963  1.0000
  C   C33       1.0  0.3859194548768441  0.22862234505175205  0.8140601980493444  1.0000
  C   C34       1.0  0.6140805445431282  0.771377655397742  0.1859398023154411  1.0000
  C   C35       1.0  0.2215592475970911  0.3296670515784717  0.33990716619889677  1.0000
  C   C36       1.0  0.778440753259097  0.670332948339636  0.6600928333623228  1.0000
  C   C37       1.0  0.46348482703980526  0.304756178312279  0.6237485994168186  1.0000
  C   C38       1.0  0.5365151737703794  0.6952438212360693  0.37625140095088383  1.0000
  C   C39       1.0  0.22995615742057962  0.3071170634761133  0.5611425997867352  1.0000
  C   C40       1.0  0.7700438420453962  0.6928829373431402  0.4388573997715676  1.0000
  C   C41       1.0  0.4547641236002344  0.3292598206224939  0.5173089748708755  1.0000
  C   C42       1.0  0.5452358758197381  0.6707401798270001  0.48269102549391013  1.0000
  C   C43       1.0  0.150552575688337  0.988295029780071  0.9095647868244789  1.0000
  C   C44       1.0  0.8494474241655915  0.011704969769716123  0.0904352135440477  1.0000
  C   C45       1.0  0.8968687368778613  0.9030553305681885  0.8445011828745049  1.0000
  C   C46       1.0  0.10313126297606728  0.09694466898159879  0.15549881749402167  1.0000
  C   C47       1.0  0.8103769224452638  0.35160236205714235  0.9578473791160421  1.0000
  C   C48       1.0  0.1896230769747084  0.6483976383923519  0.04215262124874345  1.0000
  C   C49       1.0  0.953400019823458  0.3437627623292479  0.9238586463204106  1.0000
  C   C50       1.0  0.046599981032730296  0.6562372375888597  0.07614135324080912  1.0000
  N   N1        1.0  0.3604643853881374  0.27863268176772327  0.6976825239378533  1.0000
  N   N2        1.0  0.639535614465791  0.721367317782064  0.30231747643067325  1.0000
  N   N3        1.0  0.33681422686847334  0.3431761776492089  0.16833187367227612  1.0000
  N   N4        1.0  0.6631857739877148  0.6568238222688989  0.8316681258889435  1.0000
  N   N5        1.0  0.6945985263480698  0.3603595599330148  0.9857954888675462  1.0000
  N   N6        1.0  0.3054014735518621  0.639640439986532  0.014204510694497558  1.0000
  O   O1        1.0  0.8112537794539925  0.8257378210367641  0.883183669252763  1.0000
  O   O2        1.0  0.18874622135619232  0.17426217851158407  0.11681633111493941  1.0000
  O   O3        1.0  0.23142197836466505  0.06670414376857584  0.8885736797730005  1.0000
  O   O4        1.0  0.7685780215352667  0.933295856150971  0.11142631978904341  1.0000
  F   F1        1.0  0.22253559464380673  0.7098277642134179  0.7760894436924206  1.0000
  F   F2        1.0  0.7774644062123814  0.29017223570469003  0.22391055586879904  1.0000
  F   F3        1.0  0.04332970866885632  0.7323645444405424  0.6872591052864764  1.0000
  F   F4        1.0  0.9566702911850722  0.2676354551092447  0.31274089508205033  1.0000
  F   F5        1.0  0.0800489782055977  0.5892953178425578  0.8665653900687453  1.0000
  F   F6        1.0  0.9199510226505905  0.4107046820755498  0.13343460949247438  1.0000
  F   F7        1.0  0.1314287875399462  0.5091386658409192  0.7327853700104647  1.0000
  F   F8        1.0  0.8685712118800263  0.49086133460857484  0.2672146303543208  1.0000
  F   F9        1.0  0.27542593582831754  0.6274868208634339  0.6419928540566008  1.0000
  F   F10       1.0  0.7245740640716143  0.37251317905611286  0.3580071455054431  1.0000
  F   F11       1.0  0.31271801540869676  0.48772693194802275  0.8205503574167197  1.0000
  F   F12       1.0  0.6872819844452315  0.5122730676017647  0.179449642951807  1.0000
  F   F13       1.0  0.010975061248486231  0.16351479504677863  0.6880040224729707  1.0000
  F   F14       1.0  0.989024938171486  0.8364852054027154  0.31199597789181494  1.0000
  F   F15       1.0  0.7965144898291024  0.18865954727985162  0.642629584576114  1.0000
  F   F16       1.0  0.20348550959086992  0.8113404531696425  0.3573704157886715  1.0000
  F   F17       1.0  0.9097237509044392  0.3657770459288778  0.7009269845846807  1.0000
  F   F18       1.0  0.09027624899549258  0.6342229539906691  0.299073014977363  1.0000
  F   F19       1.0  0.8137864519011582  0.20745310386498145  0.8000854879250493  1.0000
  F   F20       1.0  0.18621354756481745  0.7925468969542719  0.19991451163325344  1.0000
  F   F21       1.0  0.6947262082564074  0.3891015168782654  0.6570204054932818  1.0000
  F   F22       1.0  0.30527379159752094  0.610898482671522  0.34297959487524476  1.0000
  F   F23       1.0  0.8933133037441268  0.3467346942717692  0.5442361904447872  1.0000
  F   F24       1.0  0.10668669610980148  0.6532653052780182  0.4557638099237393  1.0000
  P   P1        1.0  0.17782665364947026  0.6094086250840621  0.7535418256139319  1.0000
  P   P2        1.0  0.822173346204458  0.3905913744657251  0.24645817475459483  1.0000
  P   P3        1.0  0.8533712238136764  0.27800826731491396  0.6711632997811915  1.0000
  P   P4        1.0  0.14662877560629595  0.7219917331345802  0.32883670058359393  1.0000
  S   S1        1.0  0.6665743369636504  0.025299179859841196  0.37456139024537194  1.0000
  S   S2        1.0  0.33342566293628123  0.9747008200597056  0.625438609316672  1.0000
  S   S3        1.0  0.6375440305042118  0.0013352415128720478  0.5990861086109367  1.0000
  S   S4        1.0  0.3624559698720169  0.9986647589351829  0.4009138917530246  1.0000
