data_image0
_chemical_formula_structural       H104C80N24O16Cl4
_chemical_formula_sum              "H104 C80 N24 O16 Cl4"
_cell_length_a       21.168790351714467
_cell_length_b       14.480996550829722
_cell_length_c       6.9003879011634
_cell_angle_alpha    90.0
_cell_angle_beta     90.0
_cell_angle_gamma    90.0

_space_group_name_H-M_alt    "P 1"
_space_group_IT_number       1

loop_
  _space_group_symop_operation_xyz
  'x, y, z'

loop_
  _atom_site_type_symbol
  _atom_site_label
  _atom_site_symmetry_multiplicity
  _atom_site_fract_x
  _atom_site_fract_y
  _atom_site_fract_z
  _atom_site_occupancy
  H   H1        1.0  0.6934867427987466  0.7592114321282719  0.2268690126443559  1.0000
  H   H2        1.0  0.3065132575926566  0.24078856781443073  0.7268690125600563  1.0000
  H   H3        1.0  0.19348674260304502  0.7407885681310621  0.2268690126443559  1.0000
  H   H4        1.0  0.8065132573159647  0.2592114318116405  0.7268690125600563  1.0000
  H   H5        1.0  0.736698781125061  0.7587741576646138  0.006974529648092078  1.0000
  H   H6        1.0  0.26330121879394863  0.2412258422780889  0.5069745295637924  1.0000
  H   H7        1.0  0.23669878092935942  0.7412258419041602  0.006974529648092078  1.0000
  H   H8        1.0  0.7633012189896502  0.25877415803854253  0.5069745295637924  1.0000
  H   H9        1.0  0.6521336396948132  0.6614461315820963  0.8499491599611623  1.0000
  H   H10       1.0  0.3478663602241965  0.33855386836060636  0.34994916004546195  1.0000
  H   H11       1.0  0.15213363949911157  0.8385538686772378  0.8499491599611623  1.0000
  H   H12       1.0  0.847866360419898  0.1614461312654649  0.34994916004546195  1.0000
  H   H13       1.0  0.6877438719034262  0.6099310975592993  0.05451287454964376  1.0000
  H   H14       1.0  0.31225612801558345  0.39006890238340336  0.5545128744653441  1.0000
  H   H15       1.0  0.18774387218011818  0.8900689020094746  0.05451287454964376  1.0000
  H   H16       1.0  0.8122561277388914  0.10993109793322807  0.5545128744653441  1.0000
  H   H17       1.0  0.591860438496207  0.511802567867841  0.1038097698651445  1.0000
  H   H18       1.0  0.40813956142280267  0.48819743207486166  0.6038097697808449  1.0000
  H   H19       1.0  0.09186043877289891  0.988197431700933  0.1038097698651445  1.0000
  H   H20       1.0  0.9081395616185043  0.011802568241769739  0.6038097697808449  1.0000
  H   H21       1.0  0.5612296457476981  0.564452201290778  0.8931134623549136  1.0000
  H   H22       1.0  0.43877035417131155  0.4355477986519247  0.39311346243921325  1.0000
  H   H23       1.0  0.06122964555199649  0.9355477989685561  0.8931134623549136  1.0000
  H   H24       1.0  0.9387703543670132  0.06445220097414653  0.39311346243921325  1.0000
  H   H25       1.0  0.4752105856244765  0.5026173540233988  0.10404178435808772  1.0000
  H   H26       1.0  0.5247894142945332  0.49738264591930387  0.6040417842737881  1.0000
  H   H27       1.0  0.975210585820178  0.9973826462359353  0.10404178435808772  1.0000
  H   H28       1.0  0.024789414098831557  0.0026173537067673927  0.6040417842737881  1.0000
  H   H29       1.0  0.5047062124234556  0.5700400190708577  0.30217294880603046  1.0000
  H   H30       1.0  0.495293787495554  0.42995998087184495  0.8021729487217307  1.0000
  H   H31       1.0  0.004706212700147571  0.9299599811884763  0.30217294880603046  1.0000
  H   H32       1.0  0.9952937876912556  0.0700400187542263  0.8021729487217307  1.0000
  H   H33       1.0  0.3943094853940943  0.6550961003755263  0.8624743224937539  1.0000
  H   H34       1.0  0.6056905145249154  0.34490389956717626  0.36247432112885963  1.0000
  H   H35       1.0  0.8943094855897958  0.8449038998838077  0.8624743224937539  1.0000
  H   H36       1.0  0.10569051480160732  0.155096100058895  0.36247432112885963  1.0000
  H   H37       1.0  0.468873184772985  0.6098784457961887  0.8007571920802306  1.0000
  H   H38       1.0  0.5311268151460247  0.390121554146514  0.3007571921645302  1.0000
  H   H39       1.0  0.9688731849686867  0.8901215537725852  0.8007571920802306  1.0000
  H   H40       1.0  0.031126814950323038  0.10987844617011744  0.3007571921645302  1.0000
  H   H41       1.0  0.4437098229960633  0.7688342001132568  0.669470811810614  1.0000
  H   H42       1.0  0.5562901769229464  0.23116579982944588  0.1694708118949136  1.0000
  H   H43       1.0  0.9437098231917649  0.7311658001460773  0.669470811810614  1.0000
  H   H44       1.0  0.056290177199638254  0.2688341997966253  0.1694708118949136  1.0000
  H   H45       1.0  0.4480279653405831  0.8139188224117541  0.9060749655748878  1.0000
  H   H46       1.0  0.55197203505082  0.1860811775309486  0.4060749656591874  1.0000
  H   H47       1.0  0.9480279650638912  0.68608117784758  0.9060749655748878  1.0000
  H   H48       1.0  0.051972034855118476  0.3139188220951226  0.4060749656591874  1.0000
  H   H49       1.0  0.5411878033490067  0.9024464679712406  0.8955608508556605  1.0000
  H   H50       1.0  0.45881219657000294  0.09755353197146212  0.3955608509399601  1.0000
  H   H51       1.0  0.04118780362569866  0.5975535315975333  0.8955608508556605  1.0000
  H   H52       1.0  0.9588121967657046  0.40244646834516934  0.3955608509399601  1.0000
  H   H53       1.0  0.551628682885711  0.8884921852469331  0.6427039861414571  1.0000
  H   H54       1.0  0.4483713170332985  0.11150781469576965  0.1427039862257567  1.0000
  H   H55       1.0  0.05162868269000946  0.6115078150124011  0.6427039861414571  1.0000
  H   H56       1.0  0.9483713172290003  0.3884921849303016  0.1427039862257567  1.0000
  H   H57       1.0  0.6533416723492596  0.7978055252929429  0.7187380319827846  1.0000
  H   H58       1.0  0.3466583275697501  0.20219447464975984  0.21873803206708425  1.0000
  H   H59       1.0  0.15334167262595147  0.702194474275831  0.7187380319827846  1.0000
  H   H60       1.0  0.8466583272930581  0.2978055256668716  0.21873803206708425  1.0000
  H   H61       1.0  0.6526600967958018  0.9183785386122476  0.7518625944383914  1.0000
  H   H62       1.0  0.34733990312320784  0.08162146133045496  0.251862594522691  1.0000
  H   H63       1.0  0.15266009660010021  0.5816214609565261  0.7518625944383914  1.0000
  H   H64       1.0  0.8473399033189094  0.4183785389861765  0.251862594522691  1.0000
  H   H65       1.0  0.6005392565556017  0.8879056579336928  0.3374800363914869  1.0000
  H   H66       1.0  0.3994607433634079  0.11209434200900992  0.8374800363071873  1.0000
  H   H67       1.0  0.1005392568322936  0.6120943423256414  0.3374800363914869  1.0000
  H   H68       1.0  0.899460743086716  0.38790565761706125  0.8374800363071873  1.0000
  H   H69       1.0  0.6233577762713907  0.02853012004732008  0.5378848788159032  1.0000
  H   H70       1.0  0.376642223647619  0.9714698798953826  0.037884878900202805  1.0000
  H   H71       1.0  0.12335777607568905  0.47146988026931136  0.5378848788159032  1.0000
  H   H72       1.0  0.8766422238433206  0.5285301196733913  0.037884878900202805  1.0000
  H   H73       1.0  0.7037796540317379  0.14144245410255568  0.42973365591520557  1.0000
  H   H74       1.0  0.29622034635966527  0.858557545840147  0.929733655830906  1.0000
  H   H75       1.0  0.20377965383603633  0.35855754621407576  0.42973365591520557  1.0000
  H   H76       1.0  0.7962203460829733  0.641442453728627  0.929733655830906  1.0000
  H   H77       1.0  0.7632492741226206  0.11254957310977434  0.1172453174499939  1.0000
  H   H78       1.0  0.23675072579638914  0.8874504268329283  0.6172453188148882  1.0000
  H   H79       1.0  0.26324927392691894  0.38745042720685713  0.1172453174499939  1.0000
  H   H80       1.0  0.7367507259920907  0.6125495727358455  0.6172453188148882  1.0000
  H   H81       1.0  0.367448628417732  0.5357305288188534  0.19370707257988223  1.0000
  H   H82       1.0  0.6325513719736712  0.4642694718144094  0.6937070724955826  1.0000
  H   H83       1.0  0.8674486281410402  0.9642694714404806  0.19370707257988223  1.0000
  H   H84       1.0  0.1325513717779696  0.03573052850222201  0.6937070724955826  1.0000
  H   H85       1.0  0.27828171105312566  0.5724747527493199  0.4164355803121617  1.0000
  H   H86       1.0  0.721718288865884  0.42752524719338275  0.9164355802278621  1.0000
  H   H87       1.0  0.7782817112488273  0.9275252475100142  0.4164355803121617  1.0000
  H   H88       1.0  0.22171828867018237  0.0724747531232487  0.9164355802278621  1.0000
  H   H89       1.0  0.26620410785747145  0.731129304729609  0.5493774544704733  1.0000
  H   H90       1.0  0.7337958920615382  0.26887069521309376  0.049377454554772826  1.0000
  H   H91       1.0  0.7662041080531731  0.7688706955297252  0.5493774544704733  1.0000
  H   H92       1.0  0.23379589233823012  0.2311293051035377  0.049377454554772826  1.0000
  H   H93       1.0  0.3479560049307891  0.8507998856814915  0.4732617378581583  1.0000
  H   H94       1.0  0.6520439949882206  0.14920011426121121  0.9732617377738587  1.0000
  H   H95       1.0  0.8479560046540972  0.6492001145778427  0.4732617378581583  1.0000
  H   H96       1.0  0.15204399526491252  0.35079988536486  0.9732617377738587  1.0000
  H   H97       1.0  0.5690949340912295  0.7124071581530002  0.12074186001333764  1.0000
  H   H98       1.0  0.43090506582778015  0.28759284248026273  0.620741859929038  1.0000
  H   H99       1.0  0.06909493436792145  0.787592842106334  0.12074186001333764  1.0000
  H   H100      1.0  0.9309050660234817  0.21240715783636874  0.620741859929038  1.0000
  H   H101      1.0  0.5535311227195837  0.7204124207461576  0.703203858899279  1.0000
  H   H102      1.0  0.446468877199426  0.279587579196545  0.20320385898357868  1.0000
  H   H103      1.0  0.05353112252388208  0.7795875795131764  0.703203858899279  1.0000
  H   H104      1.0  0.9464688773951275  0.22041242042952622  0.20320385898357868  1.0000
  C   C1        1.0  0.6884742612994715  0.7576456973447289  0.06848354277595413  1.0000
  C   C2        1.0  0.31152573861953803  0.2423543025979737  0.5684835426916545  1.0000
  C   C3        1.0  0.18847426157616357  0.7423543029146051  0.06848354277595413  1.0000
  C   C4        1.0  0.811525738342846  0.25764569702809753  0.5684835426916545  1.0000
  C   C5        1.0  0.6570260226925791  0.6677772393672678  0.011427657564976176  1.0000
  C   C6        1.0  0.3429739772264305  0.3322227605754348  0.5114276574806765  1.0000
  C   C7        1.0  0.15702602249687753  0.832222760201506  0.011427657564976176  1.0000
  C   C8        1.0  0.8429739774221322  0.16777723974119663  0.5114276574806765  1.0000
  C   C9        1.0  0.5638172517983936  0.5713939355593523  0.05311697766124187  1.0000
  C   C10       1.0  0.4361827481206161  0.42860606438335047  0.5531169775769422  1.0000
  C   C11       1.0  0.06381725160269194  0.928606064699982  0.05311697766124187  1.0000
  C   C12       1.0  0.9361827483163178  0.07139393524272077  0.5531169775769422  1.0000
  C   C13       1.0  0.49856376650001766  0.5683882625832403  0.14409266323018777  1.0000
  C   C14       1.0  0.5014362334189919  0.43161173735946246  0.6440926631458882  1.0000
  C   C15       1.0  0.9985637666957193  0.9316117369855337  0.14409266323018777  1.0000
  C   C16       1.0  0.001436233223290325  0.06838826295716897  0.6440926631458882  1.0000
  C   C17       1.0  0.44543928364977686  0.6636572881062768  0.88723999834383  1.0000
  C   C18       1.0  0.5545607167416264  0.3363427125269862  0.3872399984281297  1.0000
  C   C19       1.0  0.9454392833730849  0.8363427121530574  0.88723999834383  1.0000
  C   C20       1.0  0.05456071654592476  0.16365728778964522  0.3872399984281297  1.0000
  C   C21       1.0  0.4663616997463645  0.7585337612258893  0.8125067474909243  1.0000
  C   C22       1.0  0.5336383001726451  0.2414662387168133  0.31250674757522395  1.0000
  C   C23       1.0  0.9663616999420661  0.7414662383428846  0.8125067474909243  1.0000
  C   C24       1.0  0.03363829997694357  0.2585337615998181  0.31250674757522395  1.0000
  C   C25       1.0  0.5619436822962615  0.8564423426569624  0.7855712428986878  1.0000
  C   C26       1.0  0.43805631762274816  0.14355765728574024  0.2855712429829874  1.0000
  C   C27       1.0  0.061943682100559866  0.6435576569118115  0.7855712428986878  1.0000
  C   C28       1.0  0.9380563178184498  0.3564423430308912  0.2855712429829874  1.0000
  C   C29       1.0  0.6340532593971736  0.8533051186516576  0.8100687932424155  1.0000
  C   C30       1.0  0.365946740521836  0.14669488129104513  0.31006879332671516  1.0000
  C   C31       1.0  0.13405325920147204  0.6466948809171164  0.8100687932424155  1.0000
  C   C32       1.0  0.8659467407175376  0.3533051190255863  0.31006879332671516  1.0000
  C   C33       1.0  0.6685387745291649  0.9200411935210786  0.12000957219526467  1.0000
  C   C34       1.0  0.33146122538984474  0.07995880642162409  0.6200095721109651  1.0000
  C   C35       1.0  0.16853877433346331  0.5799588067382555  0.12000957219526467  1.0000
  C   C36       1.0  0.8314612255855465  0.42004119320444716  0.6200095721109651  1.0000
  C   C37       1.0  0.6369673985130634  0.9370577392494788  0.2949012691963175  1.0000
  C   C38       1.0  0.3630326014059463  0.06294226069322387  0.7949012691120177  1.0000
  C   C39       1.0  0.13696739831736174  0.5629422610098552  0.2949012691963175  1.0000
  C   C40       1.0  0.863032601601648  0.4370577389328474  0.7949012691120177  1.0000
  C   C41       1.0  0.6494839275918513  0.015772649292352264  0.4046145521078998  1.0000
  C   C42       1.0  0.3505160727995519  0.9842273506503505  0.9046145520236002  1.0000
  C   C43       1.0  0.1494839273961497  0.484227350333719  0.4046145521078998  1.0000
  C   C44       1.0  0.8505160725228599  0.5157726496089837  0.9046145520236002  1.0000
  C   C45       1.0  0.6942833116966305  0.08025982092602643  0.3426476371859274  1.0000
  C   C46       1.0  0.3057166882223792  0.9197401790166763  0.8426476371016278  1.0000
  C   C47       1.0  0.1942833115009289  0.419740179390605  0.3426476371859274  1.0000
  C   C48       1.0  0.8057166884180808  0.5802598205520977  0.8426476371016278  1.0000
  C   C49       1.0  0.7264618258527231  0.0659225908002376  0.16947454211999202  1.0000
  C   C50       1.0  0.27353817406628655  0.9340774091424651  0.6694745420356925  1.0000
  C   C51       1.0  0.226461826129415  0.43407740951639384  0.16947454211999202  1.0000
  C   C52       1.0  0.7735381737895946  0.5659225904263089  0.6694745420356925  1.0000
  C   C53       1.0  0.7134884147396144  0.9864664866025057  0.06216687034763293  1.0000
  C   C54       1.0  0.28651158517939523  0.013533513340196946  0.5621668702633333  1.0000
  C   C55       1.0  0.2134884145439128  0.5135335129662681  0.06216687034763293  1.0000
  C   C56       1.0  0.7865115853750969  0.48646648697643446  0.5621668702633333  1.0000
  C   C57       1.0  0.41081347991599687  0.669470690499165  0.22028812463480738  1.0000
  C   C58       1.0  0.5891865200030127  0.33052930944353776  0.7202881245505077  1.0000
  C   C59       1.0  0.9108134801116986  0.830529309069609  0.22028812463480738  1.0000
  C   C60       1.0  0.08918651980731118  0.16947069087309372  0.7202881245505077  1.0000
  C   C61       1.0  0.36383049206097995  0.604000856522464  0.26091126264024317  1.0000
  C   C62       1.0  0.6361695078580297  0.3959991434202386  0.7609112625559434  1.0000
  C   C63       1.0  0.8638304917842881  0.8959991430463098  0.26091126264024317  1.0000
  C   C64       1.0  0.13616950813472162  0.10400085689639282  0.7609112625559434  1.0000
  C   C65       1.0  0.3130930237335556  0.6252994328267535  0.38191100090991764  1.0000
  C   C66       1.0  0.686906976185454  0.37470056711594907  0.881911000825618  1.0000
  C   C67       1.0  0.8130930234568636  0.8747005667420203  0.38191100090991764  1.0000
  C   C68       1.0  0.18690697646214602  0.12529943320068232  0.881911000825618  1.0000
  C   C69       1.0  0.30623815543031085  0.7143704263507522  0.4567639160500819  1.0000
  C   C70       1.0  0.6937618444886988  0.2856295735919505  0.9567639159657823  1.0000
  C   C71       1.0  0.806238155153619  0.785629573908582  0.4567639160500819  1.0000
  C   C72       1.0  0.19376184476539074  0.2143704260341207  0.9567639159657823  1.0000
  C   C73       1.0  0.35127088919361693  0.7812761062602254  0.4151228265757417  1.0000
  C   C74       1.0  0.6487291111977863  0.21872389368247727  0.915122826491442  1.0000
  C   C75       1.0  0.8512708889169249  0.7187238933085485  0.4151228265757417  1.0000
  C   C76       1.0  0.14872911100208466  0.2812761066341542  0.915122826491442  1.0000
  C   C77       1.0  0.4037634082056919  0.7575765688150393  0.30331765546790784  1.0000
  C   C78       1.0  0.5962365917133178  0.24242343112766337  0.8033176553836082  1.0000
  C   C79       1.0  0.9037634084013935  0.7424234307537346  0.30331765546790784  1.0000
  C   C80       1.0  0.0962365915176162  0.2575765691889681  0.8033176553836082  1.0000
  N   N1        1.0  0.6528351767100729  0.8401244608612886  0.012078358665307501  1.0000
  N   N2        1.0  0.34716482320893677  0.15987553908141408  0.5120783585810079  1.0000
  N   N3        1.0  0.15283517651437126  0.6598755393980456  0.012078358665307501  1.0000
  N   N4        1.0  0.8471648234046384  0.3401244605446571  0.5120783585810079  1.0000
  N   N5        1.0  0.5966173276867055  0.6552432111073412  0.09870283522541815  1.0000
  N   N6        1.0  0.4033826722323042  0.3447567888353615  0.5987028351411186  1.0000
  N   N7        1.0  0.09661732749100388  0.8447567891519929  0.09870283522541815  1.0000
  N   N8        1.0  0.9033826724280056  0.1552432107907098  0.5987028351411186  1.0000
  N   N9        1.0  0.46133143546433497  0.6497033023228589  0.0920501338617368  1.0000
  N   N10       1.0  0.5386685644546747  0.3502966976198438  0.5920501337774372  1.0000
  N   N11       1.0  0.9613314356600366  0.8502966979364752  0.0920501338617368  1.0000
  N   N12       1.0  0.03866856425897307  0.14970330200622745  0.5920501337774372  1.0000
  N   N13       1.0  0.5342722395606326  0.765607931821844  0.8023322223764503  1.0000
  N   N14       1.0  0.46572776035837704  0.23439206812085867  0.30233222246074987  1.0000
  N   N15       1.0  0.03427223936493099  0.73439206843749  0.8023322223764503  1.0000
  N   N16       1.0  0.9657277605540787  0.26560793150521256  0.30233222246074987  1.0000
  N   N17       1.0  0.7497902476375797  0.9752283125287279  0.8831041308522086  1.0000
  N   N18       1.0  0.2502097522814299  0.024771687413974723  0.3831041309365082  1.0000
  N   N19       1.0  0.24979024791427173  0.5247716877306062  0.8831041308522086  1.0000
  N   N20       1.0  0.7502097520047379  0.4752283129026567  0.3831041309365082  1.0000
  N   N21       1.0  0.45383690567004514  0.8271547616185083  0.2906349003455118  1.0000
  N   N22       1.0  0.5461630942489646  0.17284523832419438  0.7906349002612121  1.0000
  N   N23       1.0  0.9538369058657467  0.6728452386408258  0.2906349003455118  1.0000
  N   N24       1.0  0.04616309405326294  0.3271547613018769  0.7906349002612121  1.0000
  O   O1        1.0  0.7523879931434087  0.04302815264218115  0.7730917589575775  1.0000
  O   O2        1.0  0.24761200724799454  0.9569718473005215  0.2730917590418772  1.0000
  O   O3        1.0  0.25238799294770703  0.45697184767445026  0.7730917589575775  1.0000
  O   O4        1.0  0.7476120069713026  0.5430281522682523  0.2730917590418772  1.0000
  O   O5        1.0  0.7760848818964012  0.9000824324658224  0.8515830202834348  1.0000
  O   O6        1.0  0.22391511802260844  0.09991756747688033  0.3515830203677344  1.0000
  O   O7        1.0  0.2760848817006996  0.5999175677935118  0.8515830202834348  1.0000
  O   O8        1.0  0.72391511821831  0.4000824321491909  0.3515830203677344  1.0000
  O   O9        1.0  0.4381064451917953  0.9094093527178863  0.2689856521960254  1.0000
  O   O10       1.0  0.5618935547272144  0.09059064791537672  0.7689856521117258  1.0000
  O   O11       1.0  0.9381064453874969  0.590590647541448  0.2689856521960254  1.0000
  O   O12       1.0  0.06189355453151274  0.40940935240125476  0.7689856521117258  1.0000
  O   O13       1.0  0.5092792743883383  0.801097387136337  0.3113227938443586  1.0000
  O   O14       1.0  0.49072072600306493  0.1989026128063656  0.8113227937600591  1.0000
  O   O15       1.0  0.00927927419263666  0.6989026131229971  0.3113227938443586  1.0000
  O   O16       1.0  0.990720725726373  0.3010973875102658  0.8113227937600591  1.0000
  Cl  Cl1       1.0  0.6178513888934005  0.6275871628102333  0.5287695883567399  1.0000
  Cl  Cl2       1.0  0.3821486110256092  0.37241283713246937  0.028769588441039592  1.0000
  Cl  Cl3       1.0  0.11785138917009245  0.8724128374491007  0.5287695883567399  1.0000
  Cl  Cl4       1.0  0.8821486107489173  0.12758716249360186  0.028769588441039592  1.0000
