data_image0
_chemical_formula_structural       H60B2C40O12F8I2
_chemical_formula_sum              "H60 B2 C40 O12 F8 I2"
_cell_length_a       7.904824679961921
_cell_length_b       10.87356689108621
_cell_length_c       13.84958141497952
_cell_angle_alpha    90.0
_cell_angle_beta     95.62694895974894
_cell_angle_gamma    90.0

_space_group_name_H-M_alt    "P 1"
_space_group_IT_number       1

loop_
  _space_group_symop_operation_xyz
  'x, y, z'

loop_
  _atom_site_type_symbol
  _atom_site_label
  _atom_site_symmetry_multiplicity
  _atom_site_fract_x
  _atom_site_fract_y
  _atom_site_fract_z
  _atom_site_occupancy
  H   H1        1.0  0.3426412993853222  0.5085287326031827  0.9352189126316169  1.0000
  H   H2        1.0  0.6573586995061257  0.008528732193299268  0.0647810872645113  1.0000
  H   H3        1.0  0.4130170752471941  0.7435521656309365  0.22516508742842792  1.0000
  H   H4        1.0  0.5869829249082756  0.2435521661407144  0.7748349124619465  1.0000
  H   H5        1.0  0.7084272510638215  0.8130384057550842  0.27276905951264857  1.0000
  H   H6        1.0  0.2915727490916484  0.31303840534520083  0.7272309403777257  1.0000
  H   H7        1.0  0.9249857787945834  0.6648775827117576  0.34814427761666383  1.0000
  H   H8        1.0  0.07501422136088651  0.16487758322153553  0.6518557222737106  1.0000
  H   H9        1.0  0.8441891189479658  0.44795580684687597  0.3759161414731622  1.0000
  H   H10       1.0  0.15581088120750414  0.947955806337098  0.624083858417212  1.0000
  H   H11       1.0  0.5462232210599778  0.37781217986231713  0.33074701774257964  1.0000
  H   H12       1.0  0.4537767790954922  0.8778121793525393  0.6692529821477948  1.0000
  H   H13       1.0  0.4273343994897672  0.6340278805523872  0.47633975334786366  1.0000
  H   H14       1.0  0.5726656006657027  0.13402788014250377  0.5236602465425108  1.0000
  H   H15       1.0  0.3082513551681389  0.6960520651419786  0.5683434085235203  1.0000
  H   H16       1.0  0.691748644987331  0.19605206565175656  0.43165659136685414  1.0000
  H   H17       1.0  0.08997729631395314  0.5311699737401475  0.5347638479898158  1.0000
  H   H18       1.0  0.9100227038415167  0.03116997424992553  0.4652361519005586  1.0000
  H   H19       1.0  0.29741648843886487  0.47839447277087227  0.5806466894227224  1.0000
  H   H20       1.0  0.702583511716605  0.9783944731807557  0.41935331046765206  1.0000
  H   H21       1.0  0.2832862983315901  0.279276485850233  0.5118039467314831  1.0000
  H   H22       1.0  0.7167137018238798  0.7792764862601165  0.48819605315889125  1.0000
  H   H23       1.0  0.06346706527676776  0.31934521162936663  0.4967403417838673  1.0000
  H   H24       1.0  0.9365329348787022  0.81934521203925  0.5032596581065071  1.0000
  H   H25       1.0  0.13554501691128487  0.14209989283890354  0.3956784217691538  1.0000
  H   H26       1.0  0.864454983244185  0.6420998923291256  0.6043215781212207  1.0000
  H   H27       1.0  0.2694798568323677  0.237006969820789  0.33115276667421156  1.0000
  H   H28       1.0  0.7305201420590802  0.7370069693110111  0.6688472332219165  1.0000
  H   H29       1.0  0.1043707761708328  0.21611778761635508  0.18594601630735277  1.0000
  H   H30       1.0  0.8956292239846372  0.716117787106577  0.8140539835830216  1.0000
  H   H31       1.0  0.9426009059452096  0.12369702264880618  0.23214065390050292  1.0000
  H   H32       1.0  0.057399094210260265  0.6236970230586897  0.7678593459898715  1.0000
  H   H33       1.0  0.7362131379736158  0.30044434937702896  0.19871711642237952  1.0000
  H   H34       1.0  0.2637868621818542  0.800444348867251  0.8012828834679949  1.0000
  H   H35       1.0  0.8055496004407895  0.22784685419381373  0.0946251773074841  1.0000
  H   H36       1.0  0.1944503997146804  0.7278468546036971  0.9053748225828903  1.0000
  H   H37       1.0  0.7144935406724577  0.41740903288328474  0.015339372753902122  1.0000
  H   H38       1.0  0.2855064594830122  0.9174090332931681  0.9846606271364723  1.0000
  H   H39       1.0  0.6830835877875959  0.4968044133179895  0.12521945037491888  1.0000
  H   H40       1.0  0.316916412367874  0.9968044128082115  0.8747805495154555  1.0000
  H   H41       1.0  0.7508576960710351  0.6334659802982021  0.9870193156370936  1.0000
  H   H42       1.0  0.24914230282041283  0.1334659808079801  0.012980684259034588  1.0000
  H   H43       1.0  0.9544581082908206  0.5616680313988403  0.9893022266341285  1.0000
  H   H44       1.0  0.04554189186464937  0.06166803098895689  0.010697773256245838  1.0000
  H   H45       1.0  0.12990737214207934  0.7394844084319386  0.05837903535554089  1.0000
  H   H46       1.0  0.870092628148059  0.23948440894171658  0.9416209652603502  1.0000
  H   H47       1.0  0.933032772502884  0.8116836626291578  0.017094482344482666  1.0000
  H   H48       1.0  0.06696722638856395  0.3116836622192744  0.9829055175516455  1.0000
  H   H49       1.0  0.9026093822827346  0.8862078604491294  0.18414816979531634  1.0000
  H   H50       1.0  0.09739061787273535  0.3862078609589072  0.815851830095058  1.0000
  H   H51       1.0  0.09042965988115205  0.9433053580981257  0.1369215076197642  1.0000
  H   H52       1.0  0.9095703402743179  0.4433053586079036  0.8630784922706102  1.0000
  H   H53       1.0  0.17741047162682652  0.9745500244898418  0.31117766904914884  1.0000
  H   H54       1.0  0.8225895285286433  0.4745500240799585  0.6888223308412255  1.0000
  H   H55       1.0  0.0010464480930792437  0.8886210621393227  0.34772826845116606  1.0000
  H   H56       1.0  0.9989535520623907  0.3886210617294391  0.6522717314392082  1.0000
  H   H57       1.0  0.25161780752155594  0.885150545024011  0.4714399631196882  1.0000
  H   H58       1.0  0.748382192633914  0.38515054461412757  0.5285600367706862  1.0000
  H   H59       1.0  0.38023131457648374  0.8216559551699698  0.3852235444106575  1.0000
  H   H60       1.0  0.6197686855789861  0.32165595476008646  0.6147764554797169  1.0000
  B   B1        1.0  0.504832963943658  0.5701896260998358  0.7724300197255678  1.0000
  B   B2        1.0  0.4951670363464803  0.07018962660961378  0.22756998089032332  1.0000
  C   C1        1.0  0.3100827668086663  0.5057526325154786  0.009166849076089861  1.0000
  C   C2        1.0  0.6899172333468035  0.005752632105595244  0.9908331508142845  1.0000
  C   C3        1.0  0.26986840760807373  0.504030599608747  0.09154076382618385  1.0000
  C   C4        1.0  0.7301315912833741  0.004030600118524854  0.9084592360699444  1.0000
  C   C5        1.0  0.46687096241246523  0.557901018199742  0.2770673858774913  1.0000
  C   C6        1.0  0.5331290377430046  0.05790101870952001  0.7229326140128831  1.0000
  C   C7        1.0  0.5075951256316974  0.6798762323392036  0.2589707392226404  1.0000
  C   C8        1.0  0.49240487452377246  0.17987623192932017  0.7410292606677339  1.0000
  C   C9        1.0  0.6741672048982559  0.7179126682339465  0.2862531315610321  1.0000
  C   C10       1.0  0.3258327952572141  0.21791266874372456  0.7137468683293423  1.0000
  C   C11       1.0  0.7943614328295213  0.6352197580779326  0.3291209551599105  1.0000
  C   C12       1.0  0.20563856732594854  0.13521975766804917  0.6708790447304639  1.0000
  C   C13       1.0  0.7488722714554891  0.5136830614964868  0.34614335582582095  1.0000
  C   C14       1.0  0.2511277288346492  0.013683061086603323  0.6538566447900702  1.0000
  C   C15       1.0  0.5826402803905492  0.47309325463542734  0.32013180679609377  1.0000
  C   C16       1.0  0.4173597197649208  0.9730932550453107  0.6798681930942806  1.0000
  C   C17       1.0  0.29805002097308264  0.6439540024111197  0.49942474739914255  1.0000
  C   C18       1.0  0.7019499791823872  0.14395400292089763  0.5005752524912318  1.0000
  C   C19       1.0  0.2229168089968856  0.520070827415041  0.51771900879199  1.0000
  C   C20       1.0  0.7770831911585843  0.020070827924818964  0.4822809910983844  1.0000
  C   C21       1.0  0.18160141337997493  0.3179015317258688  0.46031231989624766  1.0000
  C   C22       1.0  0.8183985855114732  0.8179015321357522  0.5396876799998805  1.0000
  C   C23       1.0  0.15605789434441247  0.23751984200485324  0.3717840844085878  1.0000
  C   C24       1.0  0.8439421059457258  0.7375198424147368  0.6282159162073033  1.0000
  C   C25       1.0  0.9845713547744409  0.21882958957567097  0.22106389816809557  1.0000
  C   C26       1.0  0.015428645381029017  0.7188295899855545  0.7789361017222787  1.0000
  C   C27       1.0  0.8475261197905832  0.285231579578776  0.158293436763379  1.0000
  C   C28       1.0  0.1524738803648867  0.7852315799886594  0.8417065631269953  1.0000
  C   C29       1.0  0.7782355462530202  0.47213623012780864  0.07538756878800139  1.0000
  C   C30       1.0  0.22176445390244978  0.9721362296180308  0.924612431102373  1.0000
  C   C31       1.0  0.8515586415420431  0.5864009458779396  0.034220336225589745  1.0000
  C   C32       1.0  0.1484413586134268  0.08640094546805611  0.9657796636647846  1.0000
  C   C33       1.0  0.004859288381250635  0.7679436401725076  0.08029920077786322  1.0000
  C   C34       1.0  0.9951407117742194  0.2679436397626241  0.9197007991125112  1.0000
  C   C35       1.0  0.027849127668355546  0.859924540278056  0.16165242498245272  1.0000
  C   C36       1.0  0.9721508724871143  0.3599245398681726  0.8383475749079217  1.0000
  C   C37       1.0  0.13169320640903165  0.881379647175062  0.32580142997391076  1.0000
  C   C38       1.0  0.8683067937464383  0.38137964768484  0.6741985699164635  1.0000
  C   C39       1.0  0.24946006232963736  0.8258740126353263  0.40635199698801827  1.0000
  C   C40       1.0  0.7505399378258325  0.32587401222544304  0.5936480029023561  1.0000
  O   O1        1.0  0.1897093280785178  0.7057899672545597  0.4267922045811519  1.0000
  O   O2        1.0  0.8102906720769522  0.2057899677643376  0.5732077953092225  1.0000
  O   O3        1.0  0.2260347910931092  0.4409115636130581  0.43468030427448534  1.0000
  O   O4        1.0  0.773965209197029  0.9409115631032802  0.5653196963414058  1.0000
  O   O5        1.0  0.011258439446390597  0.2816863316958939  0.312279276552727  1.0000
  O   O6        1.0  0.9887415607090794  0.781686331186116  0.6877207233376473  1.0000
  O   O7        1.0  0.9113378632435114  0.40034563943949225  0.1263817958929724  1.0000
  O   O8        1.0  0.08866213691195847  0.9003456398493757  0.873618203997402  1.0000
  O   O9        1.0  0.916001019468197  0.6638130939275401  0.11227373699258739  1.0000
  O   O10       1.0  0.08399898068727298  0.16381309443731804  0.887726262897787  1.0000
  O   O11       1.0  0.1302731258239439  0.8067414839918927  0.24145367480003252  1.0000
  O   O12       1.0  0.869726874331526  0.30674148358200926  0.7585463250903418  1.0000
  F   F1        1.0  0.6184506382889318  0.5088130486910835  0.8415155070467847  1.0000
  F   F2        1.0  0.3815493618665381  0.008813049200861373  0.15848449284358976  1.0000
  F   F3        1.0  0.3348950401394874  0.5356249470240027  0.788221529272563  1.0000
  F   F4        1.0  0.6651049600159824  0.03562494661411917  0.21177847061781135  1.0000
  F   F5        1.0  0.5356556940123537  0.5357652193022051  0.6770898542247206  1.0000
  F   F6        1.0  0.4643443061431163  0.0357652198119831  0.3229101456656538  1.0000
  F   F7        1.0  0.5245773348857822  0.6992471225088929  0.7830180705197309  1.0000
  F   F8        1.0  0.47542266526968774  0.1992471230186708  0.21698192937064348  1.0000
  I   I1        1.0  0.21647431878072035  0.4959861675584225  0.2299252387091073  1.0000
  I   I2        1.0  0.7835256813747495  0.9959861670486445  0.770074761181267  1.0000
