data_image0
_chemical_formula_structural       H40C14N4I8
_chemical_formula_sum              "H40 C14 N4 I8"
_cell_length_a       7.587821087036643
_cell_length_b       8.7506399947381
_cell_length_c       13.30396228044229
_cell_angle_alpha    71.40149489918767
_cell_angle_beta     76.45497967023272
_cell_angle_gamma    71.0693415183125

_space_group_name_H-M_alt    "P 1"
_space_group_IT_number       1

loop_
  _space_group_symop_operation_xyz
  'x, y, z'

loop_
  _atom_site_type_symbol
  _atom_site_label
  _atom_site_symmetry_multiplicity
  _atom_site_fract_x
  _atom_site_fract_y
  _atom_site_fract_z
  _atom_site_occupancy
  H   H1        1.0  0.20175644064119305  0.8954817838733132  0.6098081066491359  1.0000
  H   H2        1.0  0.7982435583342172  0.10451821682035835  0.39019189314998287  1.0000
  H   H3        1.0  0.42949882791175037  0.8220051890421088  0.5585649000120884  1.0000
  H   H4        1.0  0.5705011726339673  0.17799481011795848  0.44143510058748603  1.0000
  H   H5        1.0  0.36551444223785895  0.9826497986580738  0.6160048190204043  1.0000
  H   H6        1.0  0.6344855567375515  0.017350202035597766  0.38399518077871436  1.0000
  H   H7        1.0  0.3108138033823962  0.6456949635466478  0.7338533310635376  1.0000
  H   H8        1.0  0.6891861955930142  0.3543050371470238  0.26614666873558107  1.0000
  H   H9        1.0  0.5236789451513368  0.6972153109803881  0.7279320045419262  1.0000
  H   H10       1.0  0.4763210538240736  0.30278468971328326  0.27206799525719255  1.0000
  H   H11       1.0  0.130631754666569  0.8971128561594035  0.8085754057259156  1.0000
  H   H12       1.0  0.8693682447615673  0.10288714332513654  0.19142459407567203  1.0000
  H   H13       1.0  0.34957972701832996  0.9280156063217215  0.8109696464967043  1.0000
  H   H14       1.0  0.6504202724098064  0.07198439316281868  0.18903035330488327  1.0000
  H   H15       1.0  0.20914633222580267  0.617765751419181  0.9358235454645543  1.0000
  H   H16       1.0  0.7908536680679699  0.3822342492772193  0.06417645433092088  1.0000
  H   H17       1.0  0.43781451545353045  0.6317184745655723  0.9323868619006666  1.0000
  H   H18       1.0  0.5621854835218798  0.36828152612809933  0.06761313789845222  1.0000
  H   H19       1.0  0.07136214641787512  0.8642024714596578  0.014448168480109285  1.0000
  H   H20       1.0  0.9286378525575352  0.13579752923401367  0.9855518313190094  1.0000
  H   H21       1.0  0.2999461262361031  0.8804250461068033  0.00807336787784609  1.0000
  H   H22       1.0  0.7000538745103955  0.11957495338046588  0.9919266319200978  1.0000
  H   H23       1.0  0.15637541550209574  0.5741126600290619  0.13840975455559135  1.0000
  H   H24       1.0  0.8436245852444028  0.4258873394582071  0.8615902452423526  1.0000
  H   H25       1.0  0.3847706260003531  0.5933519378048923  0.1300913007977342  1.0000
  H   H26       1.0  0.6152293745453645  0.40664806135517484  0.86990869980184  1.0000
  H   H27       1.0  0.23459493822018124  0.84932773965065  0.20415710803219445  1.0000
  H   H28       1.0  0.7654050618728103  0.15067226071854836  0.7958428925649111  1.0000
  H   H29       1.0  0.014266136358475467  0.8048432059114944  0.22508708071065303  1.0000
  H   H30       1.0  0.9857338643880231  0.19515679357577467  0.7749129190872909  1.0000
  H   H31       1.0  0.15626317434020326  0.5144482401238242  0.3408922361611976  1.0000
  H   H32       1.0  0.8437368264062955  0.48555175936344486  0.6591077636367464  1.0000
  H   H33       1.0  0.36843598415853984  0.5728700092364399  0.3231792324947471  1.0000
  H   H34       1.0  0.6315640148168704  0.4271299914572317  0.6768207673043716  1.0000
  H   H35       1.0  0.17243539356085105  0.8083282350135533  0.4024334146898759  1.0000
  H   H36       1.0  0.8275646054145591  0.19167176568011818  0.5975665851092428  1.0000
  H   H37       1.0  0.19426649763419016  0.6107211031449479  0.4850054084560302  1.0000
  H   H38       1.0  0.8057335026595827  0.3892788975514523  0.5149945913394449  1.0000
  H   H39       1.0  0.9936118017005037  0.7194948831105081  0.43309329478192554  1.0000
  H   H40       1.0  0.006388199045995133  0.280505116376761  0.5669067050160184  1.0000
  C   C1        1.0  0.37106796763078953  0.7473026609228922  0.7279903788915963  1.0000
  C   C2        1.0  0.6289320315965655  0.25269733823444634  0.27200962171162163  1.0000
  C   C3        1.0  0.2794142609080911  0.8321780990563258  0.8174974855183142  1.0000
  C   C4        1.0  0.7205857398384076  0.1678219004309431  0.18250251427962974  1.0000
  C   C5        1.0  0.2905460396909746  0.706186051611864  0.9271572258756067  1.0000
  C   C6        1.0  0.7094539606027981  0.2938139490845365  0.07284277391986829  1.0000
  C   C7        1.0  0.21925944987344967  0.7907654430675103  0.018273663144294128  1.0000
  C   C8        1.0  0.7807405504203231  0.20923455762889004  0.9817263366511809  1.0000
  C   C9        1.0  0.2359370569880326  0.6649196224037129  0.12746918537870996  1.0000
  C   C10       1.0  0.7640629419873779  0.33508037828995857  0.8725308144204086  1.0000
  C   C11       1.0  0.1676571487606599  0.748053280587634  0.2195028532435633  1.0000
  C   C12       1.0  0.8323428519858389  0.251946718899635  0.7804971465543806  1.0000
  C   C13       1.0  0.2154076282338075  0.6208167874015714  0.32393755494874216  1.0000
  C   C14       1.0  0.7845923707416029  0.3791832132921001  0.6760624448503765  1.0000
  N   N1        1.0  0.3411949106338219  0.8696538610351499  0.6209783944445698  1.0000
  N   N2        1.0  0.6588050896599508  0.1303461396612504  0.3790216053509053  1.0000
  N   N3        1.0  0.139609275058171  0.6954040738026598  0.41732394755222224  1.0000
  N   N4        1.0  0.8603907239172394  0.3045959268910117  0.5826760522468964  1.0000
  I   I1        1.0  0.14163605535024476  0.13080618257637056  0.35565178414403337  1.0000
  I   I2        1.0  0.8583639440778915  0.8691938169081695  0.6443482156575542  1.0000
  I   I3        1.0  0.23008403859973875  0.21587054186892068  0.09276672346997085  1.0000
  I   I4        1.0  0.7699159616940342  0.7841294588274795  0.9072332763255041  1.0000
  I   I5        1.0  0.291080890010194  0.2682594360777125  0.8697228449811814  1.0000
  I   I6        1.0  0.7089191087644351  0.7317405642887572  0.13027715561956774  1.0000
  I   I7        1.0  0.3406447487016474  0.3001312134513766  0.5890747366956333  1.0000
  I   I8        1.0  0.6593552507264887  0.6998687860331637  0.41092526310595423  1.0000
