data_image0
_chemical_formula_structural       H24C38N4O8Br2
_chemical_formula_sum              "H24 C38 N4 O8 Br2"
_cell_length_a       7.886122327147491
_cell_length_b       10.10683483797601
_cell_length_c       10.929223772376334
_cell_angle_alpha    104.89106572494492
_cell_angle_beta     95.23787567391177
_cell_angle_gamma    101.34977356645493

_space_group_name_H-M_alt    "P 1"
_space_group_IT_number       1

loop_
  _space_group_symop_operation_xyz
  'x, y, z'

loop_
  _atom_site_type_symbol
  _atom_site_label
  _atom_site_symmetry_multiplicity
  _atom_site_fract_x
  _atom_site_fract_y
  _atom_site_fract_z
  _atom_site_occupancy
  H   H1        1.0  0.27629311876628526  0.008698971007671854  0.8926736748626849  1.0000
  H   H2        1.0  0.7237068811896242  0.9913010291270307  0.10732632469386665  1.0000
  H   H3        1.0  0.06990086604497402  0.8230269765176059  0.24648730441064648  1.0000
  H   H4        1.0  0.9300991339109356  0.1769730236170966  0.753512695145905  1.0000
  H   H5        1.0  0.06791843301004377  0.04011512437763268  0.40739975989956595  1.0000
  H   H6        1.0  0.932081567143704  0.9598848760497305  0.5926002406145452  1.0000
  H   H7        1.0  0.5308102133036454  0.17527005367382673  0.9755972771258281  1.0000
  H   H8        1.0  0.469189786652264  0.8247299464608756  0.024402722430723296  1.0000
  H   H9        1.0  0.5429202877149256  0.34189341690706726  0.08832033857780755  1.0000
  H   H10       1.0  0.45707971224098404  0.6581065832276353  0.911679660978744  1.0000
  H   H11       1.0  0.34556048032221914  0.25452858075949236  0.9800601672494336  1.0000
  H   H12       1.0  0.6544395196336903  0.7454714193752101  0.01993983230711792  1.0000
  H   H13       1.0  0.7942213687585078  0.4957829179102651  0.05193145124537876  1.0000
  H   H14       1.0  0.20577863119740183  0.5042170822244374  0.9480685483111728  1.0000
  H   H15       1.0  0.8188662729672394  0.6612689086035334  0.17207325112890193  1.0000
  H   H16       1.0  0.18113372698867017  0.3387310915311692  0.8279267484276496  1.0000
  H   H17       1.0  0.9994021082705292  0.5768125483969543  0.1548556910194077  1.0000
  H   H18       1.0  0.0005978918832185579  0.423187452030409  0.8451443094947036  1.0000
  H   H19       1.0  0.17546076427800594  0.4239318440770936  0.47151397279855783  1.0000
  H   H20       1.0  0.8245392358757418  0.5760681563502696  0.5284860277155534  1.0000
  H   H21       1.0  0.3336335206555437  0.375660306249935  0.28263991241358555  1.0000
  H   H22       1.0  0.6663664790279747  0.6243396928746803  0.7173600871396634  1.0000
  H   H23       1.0  0.6594556172057774  0.4511077177637721  0.3134013818311212  1.0000
  H   H24       1.0  0.34054438275013205  0.5488922823709304  0.6865986177254302  1.0000
  C   C1        1.0  0.11381858990106491  0.8418223886501791  0.9441847397458906  1.0000
  C   C2        1.0  0.8861814099802917  0.1581776107670968  0.05581526076491798  1.0000
  C   C3        1.0  0.23158026161359915  0.9710279637838454  0.971437040429618  1.0000
  C   C4        1.0  0.7684197385401486  0.02897203664351767  0.02856296008449324  1.0000
  C   C5        1.0  0.2943286330438746  0.047320661286641925  0.09939043801511695  1.0000
  C   C6        1.0  0.705671368373897  0.9526793391263445  0.9006095624967776  1.0000
  C   C7        1.0  0.2389947873424859  0.9912665530244196  0.19971253145147885  1.0000
  C   C8        1.0  0.7610052128112619  0.008733447402943496  0.8002874690626325  1.0000
  C   C9        1.0  0.11357342627559411  0.8640331482986942  0.1691261747522679  1.0000
  C   C10       1.0  0.8864265736803154  0.1359668518360083  0.8308738248042835  1.0000
  C   C11       1.0  0.04972362353575547  0.7869431053887442  0.04210344882775822  1.0000
  C   C12       1.0  0.9502763766179922  0.21305689503861888  0.9578965516863529  1.0000
  C   C13       1.0  0.3106216297451553  0.06500037210746354  0.33357769958047684  1.0000
  C   C14       1.0  0.6893783702107543  0.9349996280272389  0.6664222999760746  1.0000
  C   C15       1.0  0.5042519741291104  0.1061968317719164  0.36923866798965393  1.0000
  C   C16       1.0  0.495748025554408  0.8938031673526989  0.6307613315635949  1.0000
  C   C17       1.0  0.5771948749604227  0.19805300948004256  0.5013439604279891  1.0000
  C   C18       1.0  0.4228051249954869  0.8019469906546598  0.49865603912856243  1.0000
  C   C19       1.0  0.470810101873115  0.21705987825971693  0.5937881050047303  1.0000
  C   C20       1.0  0.5291898982806328  0.7829401221676462  0.40621189550938086  1.0000
  C   C21       1.0  0.2793445650040339  0.15091914227695716  0.5623831403108488  1.0000
  C   C22       1.0  0.7206554349518757  0.8490808578577452  0.43761685924570265  1.0000
  C   C23       1.0  0.2092903709324578  0.08042338389835792  0.42887218801647453  1.0000
  C   C24       1.0  0.79070962922129  0.9195766165290052  0.5711278124976368  1.0000
  C   C25       1.0  0.4578057236119214  0.23946163680171473  0.03741614103024607  1.0000
  C   C26       1.0  0.5421942765418264  0.7605383636256484  0.9625838594838653  1.0000
  C   C27       1.0  0.8839510246518182  0.5957323769167262  0.10395882759511929  1.0000
  C   C28       1.0  0.11604897522953869  0.4042676225005499  0.8960411729156895  1.0000
  C   C29       1.0  0.5389455479769706  0.2922927331193142  0.7232087924309224  1.0000
  C   C30       1.0  0.4610544519789389  0.7077072670153882  0.276791207125629  1.0000
  C   C31       1.0  0.7609092577991472  0.2526810068774887  0.5290730214183956  1.0000
  C   C32       1.0  0.23909074208220968  0.7473189925397874  0.47092697909241304  1.0000
  C   C33       1.0  0.3174465693243932  0.45686191281238536  0.4828332644326677  1.0000
  C   C34       1.0  0.6825534308293546  0.5431380876149777  0.5171667360814436  1.0000
  C   C35       1.0  0.4060982973276906  0.429847750235192  0.37775265200807784  1.0000
  C   C36       1.0  0.5939017028260574  0.5701522501921712  0.6222473485060335  1.0000
  C   C37       1.0  0.5888604047201192  0.47263679056812913  0.3949269352845346  1.0000
  C   C38       1.0  0.41113959543362855  0.527363209859234  0.6050730652295767  1.0000
  N   N1        1.0  0.9117103473225944  0.2994895287004194  0.5523841345503073  1.0000
  N   N2        1.0  0.08828965263331515  0.7005104714342831  0.4476158650062442  1.0000
  N   N3        1.0  0.5960960718639878  0.3537750397609586  0.8295497099758805  1.0000
  N   N4        1.0  0.40390392809192166  0.6462249603737439  0.17045028958067093  1.0000
  O   O1        1.0  0.9334777590378721  0.6610023117064768  0.005627128614241016  1.0000
  O   O2        1.0  0.06652224111587574  0.33899768872088637  0.9943728718998702  1.0000
  O   O3        1.0  0.40134248461038385  0.17713265581611334  0.1353445635379101  1.0000
  O   O4        1.0  0.5986575155433639  0.8228673446112499  0.8646554369762012  1.0000
  O   O5        1.0  0.6038713695942303  0.05572771703101237  0.29979388211347774  1.0000
  O   O6        1.0  0.3961286302871265  0.9442722823862637  0.7002061183973309  1.0000
  O   O7        1.0  0.1877666177110677  0.15931806369804571  0.6493722020113143  1.0000
  O   O8        1.0  0.81223338244268  0.8406819367293173  0.350627798502797  1.0000
  Br  Br1       1.0  0.04292236360038417  0.734765116499211  0.7714125945554907  1.0000
  Br  Br2       1.0  0.9570776363555255  0.2652348836354915  0.22858740500106076  1.0000
