data_image0
_chemical_formula_structural       H32C34N2O2Cl4
_chemical_formula_sum              "H32 C34 N2 O2 Cl4"
_cell_length_a       5.113896932997275
_cell_length_b       8.844630025351348
_cell_length_c       16.81249514865191
_cell_angle_alpha    101.47529053307227
_cell_angle_beta     96.00454121975265
_cell_angle_gamma    94.92266638943059

_space_group_name_H-M_alt    "P 1"
_space_group_IT_number       1

loop_
  _space_group_symop_operation_xyz
  'x, y, z'

loop_
  _atom_site_type_symbol
  _atom_site_label
  _atom_site_symmetry_multiplicity
  _atom_site_fract_x
  _atom_site_fract_y
  _atom_site_fract_z
  _atom_site_occupancy
  H   H1        1.0  0.6978441750619319  0.4587267428151904  0.4841158250329342  1.0000
  H   H2        1.0  0.30215582468459806  0.5412732565085921  0.515884174765363  1.0000
  H   H3        1.0  0.5758140035235007  0.2071486303806675  0.4457896912530603  1.0000
  H   H4        1.0  0.42418599640779303  0.792851370076956  0.5542103085429217  1.0000
  H   H5        1.0  0.7213578482032085  0.9429750122908571  0.4576524586245885  1.0000
  H   H6        1.0  0.2786421515433214  0.05702498703292535  0.5423475411737086  1.0000
  H   H7        1.0  0.9837747597582697  0.9919104045096291  0.40379058397299517  1.0000
  H   H8        1.0  0.01622524041588052  0.008089596195865134  0.5962094164346772  1.0000
  H   H9        1.0  0.39361066462007344  0.9644573596178243  0.3412469435725488  1.0000
  H   H10       1.0  0.6063893351264565  0.035542639705958126  0.6587530562257483  1.0000
  H   H11       1.0  0.048817904074178464  0.12426534697115867  0.30973995454390874  1.0000
  H   H12       1.0  0.9511820959152081  0.8757346526004944  0.6902600458660788  1.0000
  H   H13       1.0  0.13341407230161645  0.2217030105480725  0.18674846772444859  1.0000
  H   H14       1.0  0.8665859276877701  0.7782969890235807  0.8132515326855391  1.0000
  H   H15       1.0  0.7989931271606276  0.16265789501926464  0.06327365220437926  1.0000
  H   H16       1.0  0.20100687277066603  0.837342105438359  0.9367263475916028  1.0000
  H   H17       1.0  0.37465889307870676  0.9996166245637539  0.06439628255412055  1.0000
  H   H18       1.0  0.6253411070954435  0.0003833761417404335  0.9356037178535518  1.0000
  H   H19       1.0  0.29314253997385553  0.8976642546112532  0.18678729614747308  1.0000
  H   H20       1.0  0.7068574597726744  0.10233574471252918  0.8132127036508241  1.0000
  H   H21       1.0  0.9114082821343664  0.7530243461955645  0.23949138897017036  1.0000
  H   H22       1.0  0.08859171803978386  0.24697565450992998  0.760508611437502  1.0000
  H   H23       1.0  0.9065123786788594  0.46822869489895574  0.2166560887964816  1.0000
  H   H24       1.0  0.09348762131052714  0.5317713046726974  0.783343911613506  1.0000
  H   H25       1.0  0.5788495399486744  0.31201957596094776  0.2752537460645439  1.0000
  H   H26       1.0  0.42115045979785554  0.6879804233628347  0.7247462537337533  1.0000
  H   H27       1.0  0.256972619492943  0.4452327959859637  0.35870232476862246  1.0000
  H   H28       1.0  0.7430273804964437  0.5547672035856895  0.6412976756413652  1.0000
  H   H29       1.0  0.2640744024321294  0.7307786062261268  0.38265741331688957  1.0000
  H   H30       1.0  0.7359255973144005  0.2692213930976556  0.6173425864814075  1.0000
  H   H31       1.0  0.7417581972050008  0.460689814722449  0.03537513121270709  1.0000
  H   H32       1.0  0.25824180272629293  0.5393101857351745  0.9646248685832749  1.0000
  C   C1        1.0  0.9064473161627289  0.4399909235924365  0.4861155556981265  1.0000
  C   C2        1.0  0.09355268358380099  0.5600090757313458  0.5138844441001706  1.0000
  C   C3        1.0  0.9728270751437821  0.27971082709336614  0.45782311106080664  1.0000
  C   C4        1.0  0.027172925030368174  0.7202891736121282  0.5421768893468657  1.0000
  C   C5        1.0  0.7761271208114667  0.0070995121443627905  0.4109643730771683  1.0000
  C   C6        1.0  0.22387287911982695  0.9929004883132608  0.5890356267188136  1.0000
  C   C7        1.0  0.5956819434952756  0.9378426160882832  0.33055935942083653  1.0000
  C   C8        1.0  0.4043180564360182  0.062157384369340464  0.6694406403751454  1.0000
  C   C9        1.0  0.6622928659552398  0.004189649009086481  0.25767457020782625  1.0000
  C   C10       1.0  0.3377071337912901  0.995810350314696  0.7423254295904709  1.0000
  C   C11       1.0  0.899371215607669  0.09493516706287114  0.256261625833779  1.0000
  C   C12       1.0  0.1006287843236246  0.9050648333947525  0.7437383739622029  1.0000
  C   C13       1.0  0.9476751205609044  0.15136855421768666  0.18652928735957444  1.0000
  C   C14       1.0  0.05232487918562542  0.8486314451060958  0.8134707124387228  1.0000
  C   C15       1.0  0.7601056657267659  0.11819451908554598  0.11732917172659174  1.0000
  C   C16       1.0  0.23989433444738428  0.8818054816199482  0.8826708286810806  1.0000
  C   C17       1.0  0.5239476065791551  0.026557292534511365  0.11783572100553692  1.0000
  C   C18       1.0  0.4760523935949952  0.973442708170983  0.8821642794021355  1.0000
  C   C19       1.0  0.47715891516521963  0.9698261690413312  0.1871503173884076  1.0000
  C   C20       1.0  0.522841084766074  0.030173831416292363  0.8128496824075743  1.0000
  C   C21       1.0  0.5901978391091418  0.762229079076597  0.313623014189  1.0000
  C   C22       1.0  0.4098021606373881  0.23777092024718538  0.686376985609297  1.0000
  C   C23       1.0  0.7697159919702183  0.6862940641726615  0.26680238469548956  1.0000
  C   C24       1.0  0.23028400796107537  0.3137059362849621  0.7331976151004923  1.0000
  C   C25       1.0  0.7655865280967376  0.5252794277551163  0.2532635630411206  1.0000
  C   C26       1.0  0.2344134716497924  0.4747205715686662  0.7467364367571766  1.0000
  C   C27       1.0  0.5815111900400848  0.4377238714246221  0.2862328936014611  1.0000
  C   C28       1.0  0.41848881208850286  0.5622761292713946  0.7137671068075755  1.0000
  C   C29       1.0  0.40227702663153436  0.5124838970825317  0.33313873628279406  1.0000
  C   C30       1.0  0.5977229732997593  0.48751610337509194  0.666861263513188  1.0000
  C   C31       1.0  0.4073869777050471  0.6735207384453861  0.3468483441898344  1.0000
  C   C32       1.0  0.5926130239959203  0.3264792608689188  0.653151655609827  1.0000
  C   C33       1.0  0.8606635458980236  0.5249469087385933  0.9998501829989587  1.0000
  C   C34       1.0  0.13933645409136275  0.47505309083305997  0.00014981741102887834  1.0000
  N   N1        1.0  0.7595601862311394  0.1714332742653863  0.4397241385151072  1.0000
  N   N2        1.0  0.24043981370015416  0.8285667261922373  0.5602758612808746  1.0000
  O   O1        1.0  0.2048038160162407  0.247589134370691  0.45115764308745093  1.0000
  O   O2        1.0  0.7951961837302892  0.7524108649530915  0.5488423567108464  1.0000
  Cl  Cl1       1.0  0.8717363661935553  0.7254152701305883  0.04546572912283043  1.0000
  Cl  Cl2       1.0  0.12826363373773833  0.2745847303270353  0.9545342706731514  1.0000
  Cl  Cl3       1.0  0.6992916163667557  0.4896330798420715  0.8977747008804635  1.0000
  Cl  Cl4       1.0  0.3007083835645379  0.5103669206155521  0.10222529891551842  1.0000
