data_image0
_chemical_formula_structural       H132C112O4P4Cl8
_chemical_formula_sum              "H132 C112 O4 P4 Cl8"
_cell_length_a       7.636854219955264
_cell_length_b       17.025244800319904
_cell_length_c       19.076411584397327
_cell_angle_alpha    90.0
_cell_angle_beta     90.0
_cell_angle_gamma    90.0

_space_group_name_H-M_alt    "P 1"
_space_group_IT_number       1

loop_
  _space_group_symop_operation_xyz
  'x, y, z'

loop_
  _atom_site_type_symbol
  _atom_site_label
  _atom_site_symmetry_multiplicity
  _atom_site_fract_x
  _atom_site_fract_y
  _atom_site_fract_z
  _atom_site_occupancy
  H   H1        1.0  0.06652132741679806  0.34039700092248343  0.3571054681778726  1.0000
  H   H2        1.0  0.43347867258613093  0.6596029990587267  0.857105468062617  1.0000
  H   H3        1.0  0.9334786725890598  0.8403970009130884  0.14289453170687177  1.0000
  H   H4        1.0  0.566521327419727  0.15960299906812161  0.6428945315916161  1.0000
  H   H5        1.0  0.08082329742358442  0.3081802858952966  0.4451734993464859  1.0000
  H   H6        1.0  0.4191767025793446  0.6918197140859135  0.9451734992312304  1.0000
  H   H7        1.0  0.9191767025822736  0.8081802858859017  0.05482650053825846  1.0000
  H   H8        1.0  0.5808232974265134  0.1918197140953084  0.5548265009472104  1.0000
  H   H9        1.0  0.13868868116304106  0.2433115786929633  0.37722959415940627  1.0000
  H   H10       1.0  0.361311318839888  0.7566884212882468  0.8772295945683581  1.0000
  H   H11       1.0  0.8613113188428169  0.7433115786835683  0.12277040572533812  1.0000
  H   H12       1.0  0.6386886811659701  0.2566884212976418  0.6227704056100826  1.0000
  H   H13       1.0  0.40074906392778153  0.2237383018380109  0.4540157865478148  1.0000
  H   H14       1.0  0.09925093607514746  0.7762616981431992  0.9540157864325592  1.0000
  H   H15       1.0  0.5992509360780764  0.723738301828616  0.0459842133369295  1.0000
  H   H16       1.0  0.9007490639307105  0.2762616981525941  0.5459842137458815  1.0000
  H   H17       1.0  0.368818237048461  0.3056639349997609  0.5097080599766891  1.0000
  H   H18       1.0  0.131181762954468  0.6943360649814492  0.00970806009194474  1.0000
  H   H19       1.0  0.6311817629573969  0.8056639349903659  0.990291939677544  1.0000
  H   H20       1.0  0.8688182370513899  0.19433606499084416  0.4902919397927996  1.0000
  H   H21       1.0  0.565275898382317  0.298011858831226  0.46181352876688436  1.0000
  H   H22       1.0  0.93472410162647  0.7019881411499841  0.9618135286516288  1.0000
  H   H23       1.0  0.43472410162354097  0.798011858821831  0.03818647111786008  1.0000
  H   H24       1.0  0.06527589837938798  0.20198814115937902  0.5381864710026044  1.0000
  H   H25       1.0  0.4734465744484488  0.43416060777352883  0.44273532590939974  1.0000
  H   H26       1.0  0.026553425554480193  0.5658393922076813  0.9427353257941441  1.0000
  H   H27       1.0  0.5265534255574091  0.9341606077641339  0.057264674499552214  1.0000
  H   H28       1.0  0.9734465744513777  0.06583939221707626  0.5572646743842966  1.0000
  H   H29       1.0  0.3134631762047729  0.5998950017921676  0.33151823559796595  1.0000
  H   H30       1.0  0.18653682379815612  0.4001049981890425  0.8315182354827103  1.0000
  H   H31       1.0  0.686536823801085  0.09989500180156254  0.16848176428677844  1.0000
  H   H32       1.0  0.8134631762077018  0.9001049981796475  0.6684817646957305  1.0000
  H   H33       1.0  0.4796567833425866  0.572311821314717  0.39270592568506235  1.0000
  H   H34       1.0  0.02034321666034239  0.42768817866649306  0.8927059255698068  1.0000
  H   H35       1.0  0.5203432166632713  0.07231182132411201  0.107294074199682  1.0000
  H   H36       1.0  0.9796567833455155  0.9276881786570981  0.6072940746086339  1.0000
  H   H37       1.0  0.08961629360577333  0.5887297121161902  0.4248805014581082  1.0000
  H   H38       1.0  0.41038370639715566  0.4112702878650199  0.9248805013428525  1.0000
  H   H39       1.0  0.9103837064000846  0.08872971212558513  0.07511949842663622  1.0000
  H   H40       1.0  0.5896162936087023  0.911270287855625  0.5751194983113807  1.0000
  H   H41       1.0  0.157856924497776  0.5479551283647157  0.5438322277804719  1.0000
  H   H42       1.0  0.342143075505153  0.45204487220385753  0.043832227895727514  1.0000
  H   H43       1.0  0.842143075508082  0.047955127786747535  0.9561677718737612  1.0000
  H   H44       1.0  0.657856924500705  0.9520448721944627  0.4561677719890169  1.0000
  H   H45       1.0  0.3832535106342707  0.536041595703136  0.5232033417733223  1.0000
  H   H46       1.0  0.11674648936865824  0.46395840427807405  0.023203341888577943  1.0000
  H   H47       1.0  0.6167464893715873  0.036041595712530974  0.9767966584051184  1.0000
  H   H48       1.0  0.8832535106371997  0.9639584042686791  0.47679665799616644  1.0000
  H   H49       1.0  0.0772359512191206  0.4414527372821551  0.46151461772825564  1.0000
  H   H50       1.0  0.42276404878380835  0.558547262699055  0.961514617613  1.0000
  H   H51       1.0  0.9227640487867375  0.9414527372727602  0.03848538215648874  1.0000
  H   H52       1.0  0.5772359512220495  0.0585472627084499  0.5384853820412332  1.0000
  H   H53       1.0  0.22999792053255788  0.4073251481159141  0.5234899166344179  1.0000
  H   H54       1.0  0.2700020794703711  0.592674851865296  0.023489916749673483  1.0000
  H   H55       1.0  0.7700020794733001  0.9073251481065191  0.9765100830198153  1.0000
  H   H56       1.0  0.7299979205354868  0.09267485187469099  0.47651008313507087  1.0000
  H   H57       1.0  0.40921460198022563  0.6762816925712373  0.4828377773906682  1.0000
  H   H58       1.0  0.09078539802270331  0.32371830740997287  0.9828377772754125  1.0000
  H   H59       1.0  0.5907853980256323  0.17628169258063223  0.01716222249407622  1.0000
  H   H60       1.0  0.9092146019831546  0.8237183074005779  0.5171622229030283  1.0000
  H   H61       1.0  0.18684499911906904  0.6938514857523831  0.5053358073844763  1.0000
  H   H62       1.0  0.31315500088385995  0.30614851422882694  0.005335807499731913  1.0000
  H   H63       1.0  0.8131550008867889  0.19385148576177808  0.9946641927939645  1.0000
  H   H64       1.0  0.686844999121998  0.806148514219432  0.4946641923850125  1.0000
  H   H65       1.0  0.26300841316986223  0.7150209734294841  0.419293471133853  1.0000
  H   H66       1.0  0.23699158683306673  0.28497902655172597  0.9192934710185974  1.0000
  H   H67       1.0  0.7369915868359956  0.2150209734388791  0.08070652927509897  1.0000
  H   H68       1.0  0.7630084131727912  0.784979026542331  0.5807065291598433  1.0000
  H   H69       1.0  0.4911096757876793  0.19433253200199696  0.20841072821325393  1.0000
  H   H70       1.0  0.00889032421524968  0.8056674679792131  0.7084107280979983  1.0000
  H   H71       1.0  0.5088903242181787  0.694332531992602  0.29158927167149046  1.0000
  H   H72       1.0  0.9911096757906083  0.3056674679886081  0.7915892715562349  1.0000
  H   H73       1.0  0.3173756078342685  0.1554643014560511  0.10460642145256185  1.0000
  H   H74       1.0  0.1826243921686605  0.844535698525159  0.6046064213373062  1.0000
  H   H75       1.0  0.6826243921715894  0.6554643014466561  0.39539357895639016  1.0000
  H   H76       1.0  0.8173756078371974  0.3445356985345539  0.8953935788411346  1.0000
  H   H77       1.0  0.04300930730636941  0.22405587201473448  0.07599295305547366  1.0000
  H   H78       1.0  0.45699069269655956  0.7759441279664756  0.575992952940218  1.0000
  H   H79       1.0  0.9569906926994886  0.7240558720053395  0.42400704682927076  1.0000
  H   H80       1.0  0.5430093073092984  0.27594412797587053  0.9240070472382227  1.0000
  H   H81       1.0  0.9408018462924238  0.33552980629639245  0.15047685290811408  1.0000
  H   H82       1.0  0.5591981537163632  0.6644701936848176  0.6504768527928585  1.0000
  H   H83       1.0  0.059198153713434155  0.8355298062869975  0.3495231469766303  1.0000
  H   H84       1.0  0.4408018462894948  0.1644701936942126  0.8495231468613746  1.0000
  H   H85       1.0  0.11448630349855254  0.37692692852671467  0.25306010717175  1.0000
  H   H86       1.0  0.3855136965043764  0.6230730714544954  0.7530601070564943  1.0000
  H   H87       1.0  0.8855136965073055  0.8769269285173197  0.24693989271299444  1.0000
  H   H88       1.0  0.6144863035014815  0.1230730714638904  0.7469398925977389  1.0000
  H   H89       1.0  0.5560449836667007  0.3870529926169508  0.1816793527790459  1.0000
  H   H90       1.0  0.943955016342086  0.6129470073642592  0.6816793531879979  1.0000
  H   H91       1.0  0.4439550163391571  0.8870529926075559  0.31832064710569846  1.0000
  H   H92       1.0  0.05604498366377187  0.1129470073736542  0.8183206469904428  1.0000
  H   H93       1.0  0.7768572960968154  0.48944811705987473  0.1552893193195165  1.0000
  H   H94       1.0  0.7231427039119716  0.5105518829213354  0.6552893192042609  1.0000
  H   H95       1.0  0.22314270390904262  0.9894481170504797  0.3447106805652279  1.0000
  H   H96       1.0  0.2768572960938864  0.010551882930730278  0.8447106809741798  1.0000
  H   H97       1.0  0.9529376272476013  0.5485082323059772  0.25213753586308757  1.0000
  H   H98       1.0  0.5470623727611856  0.45149176767523286  0.7521375357478319  1.0000
  H   H99       1.0  0.04706237275825666  0.04850823231537218  0.24786246454586444  1.0000
  H   H100      1.0  0.45293762724467235  0.9514917676658379  0.7478624644306089  1.0000
  H   H101      1.0  0.9136293163444559  0.5012276727932662  0.374477272017073  1.0000
  H   H102      1.0  0.5863706836643311  0.4987723271879439  0.8744772719018173  1.0000
  H   H103      1.0  0.08637068366140213  0.0012276728026610966  0.125522728391879  1.0000
  H   H104      1.0  0.41362931634152683  0.998772327178549  0.6255227282766234  1.0000
  H   H105      1.0  0.7061735218027498  0.396382157739852  0.4010864929260607  1.0000
  H   H106      1.0  0.7938264782060371  0.6036178422413581  0.9010864928108051  1.0000
  H   H107      1.0  0.2938264782031082  0.8963821577304572  0.09891350748289134  1.0000
  H   H108      1.0  0.2061735217998208  0.10361784225075298  0.5989135073676357  1.0000
  H   H109      1.0  0.3558602510571322  0.14964665999704907  0.35311165940189115  1.0000
  H   H110      1.0  0.14413974894579673  0.8503533399841611  0.8531116592866356  1.0000
  H   H111      1.0  0.6441397489487257  0.6496466599876541  0.14688834048285324  1.0000
  H   H112      1.0  0.8558602510600613  0.35035333999355595  0.6468883403675976  1.0000
  H   H113      1.0  0.5268169673171486  0.029498086863958835  0.364377010280343  1.0000
  H   H114      1.0  0.9731830326916384  0.9705019131172513  0.8643770101650875  1.0000
  H   H115      1.0  0.4731830326887094  0.5294980868545639  0.13562298960440133  1.0000
  H   H116      1.0  0.026816967314219557  0.4705019131266462  0.6356229894891458  1.0000
  H   H117      1.0  0.8488457201475785  0.02980954494060866  0.343062615369061  1.0000
  H   H118      1.0  0.6511542798612083  0.9701904550406014  0.843062615778013  1.0000
  H   H119      1.0  0.15115427985827942  0.5298095449312138  0.15693738451568337  1.0000
  H   H120      1.0  0.3488457201446496  0.4701904550499964  0.6569373844004278  1.0000
  H   H121      1.0  0.9980847912590705  0.15545143115653  0.31131526774445095  1.0000
  H   H122      1.0  0.5019152087497166  0.8445485694120431  0.8113152676291954  1.0000
  H   H123      1.0  0.001915208746787585  0.655451431147135  0.18868473266450103  1.0000
  H   H124      1.0  0.49808479125614136  0.3445485694214381  0.6886847325492453  1.0000
  H   H125      1.0  0.8274137698594194  0.27770626945177085  0.2999739083361147  1.0000
  H   H126      1.0  0.6725862301493676  0.7222937305294392  0.7999739087450667  1.0000
  H   H127      1.0  0.1725862301464386  0.7777062694423759  0.2000260915486297  1.0000
  H   H128      1.0  0.3274137698564904  0.22229373053883417  0.7000260914333741  1.0000
  H   H129      1.0  0.2520847569630938  0.9758796642787664  0.4691746616182458  1.0000
  H   H130      1.0  0.24791524303983517  0.024120335702443693  0.9691746615029903  1.0000
  H   H131      1.0  0.7479152430427641  0.4758796642881614  0.030825338266498595  1.0000
  H   H132      1.0  0.7520847569660228  0.5241203356930487  0.5308253386754506  1.0000
  C   C1        1.0  0.14373726908806048  0.3049730386198287  0.39360196999215735  1.0000
  C   C2        1.0  0.3562627309148685  0.6950269613613813  0.8936019704011094  1.0000
  C   C3        1.0  0.8562627309177975  0.8049730386104338  0.10639802989258702  1.0000
  C   C4        1.0  0.6437372690909895  0.19502696137077632  0.6063980297773315  1.0000
  C   C5        1.0  0.3330036997897411  0.33399530207595923  0.40056693189875997  1.0000
  C   C6        1.0  0.16699630021318787  0.6660046979052509  0.9005669317835044  1.0000
  C   C7        1.0  0.6669963002161169  0.8339953020665642  0.0994330679859844  1.0000
  C   C8        1.0  0.8330036997926701  0.1660046979146458  0.5994330678707288  1.0000
  C   C9        1.0  0.42396460332314245  0.28700115136718546  0.45918914997433674  1.0000
  C   C10       1.0  0.07603539667978651  0.7129988486140246  0.9591891498590812  1.0000
  C   C11       1.0  0.5760353966827155  0.7870011513577906  0.04081084991040759  1.0000
  C   C12       1.0  0.9239646033260714  0.21299884862341956  0.5408108497951519  1.0000
  C   C13       1.0  0.3429429978061493  0.42255913464837946  0.4199882952070997  1.0000
  C   C14       1.0  0.15705700219677968  0.5774408653328306  0.919988295091844  1.0000
  C   C15       1.0  0.6570570021997086  0.9225591346389845  0.08001170467764475  1.0000
  C   C16       1.0  0.8429429978090782  0.07744086534222559  0.5800117050865967  1.0000
  C   C17       1.0  0.3190234735179051  0.47932462444514523  0.360422157468208  1.0000
  C   C18       1.0  0.18097652648502388  0.5206753755360648  0.86042215787716  1.0000
  C   C19       1.0  0.6809765264879528  0.9793246244357504  0.13957784241653642  1.0000
  C   C20       1.0  0.8190234735208342  0.020675375545459757  0.6395778423012808  1.0000
  C   C21       1.0  0.3407006334101847  0.5645021568100692  0.3783432160744092  1.0000
  C   C22       1.0  0.15929936659274432  0.43549784317114093  0.8783432159591535  1.0000
  C   C23       1.0  0.6592993665956733  0.0645021568194641  0.12165678381033522  1.0000
  C   C24       1.0  0.8407006334131136  0.935497843161746  0.6216567836950796  1.0000
  C   C25       1.0  0.22815507273231764  0.5900687236997165  0.4414201409287759  1.0000
  C   C26       1.0  0.2718449272706113  0.40993127628149356  0.9414201408135202  1.0000
  C   C27       1.0  0.7718449272735404  0.09006872370911147  0.05857985948017616  1.0000
  C   C28       1.0  0.7281550727352466  0.9099312762720986  0.5585798593649206  1.0000
  C   C29       1.0  0.24946146739608183  0.5317077050093227  0.5017953684659094  1.0000
  C   C30       1.0  0.2505385326068471  0.4682922949718874  0.0017953685811650524  1.0000
  C   C31       1.0  0.7505385326097761  0.031707705018717655  0.9982046317125313  1.0000
  C   C32       1.0  0.7494614673990109  0.9682922949624924  0.4982046318277869  1.0000
  C   C33       1.0  0.21398919933940722  0.4472710230784415  0.47885300438114825  1.0000
  C   C34       1.0  0.2860108006635218  0.5527289769027686  0.9788530042658927  1.0000
  C   C35       1.0  0.7860108006664507  0.9472710230690465  0.021146995503596163  1.0000
  C   C36       1.0  0.7139891993423362  0.05272897691216351  0.5211469953883405  1.0000
  C   C37       1.0  0.27395431544747434  0.6736224779443116  0.46324202069679676  1.0000
  C   C38       1.0  0.22604568455545462  0.32637752203689846  0.9632420205815411  1.0000
  C   C39       1.0  0.7260456845583836  0.17362247795370658  0.03675797918794763  1.0000
  C   C40       1.0  0.7739543154504033  0.8263775220275036  0.5367579790726921  1.0000
  C   C41       1.0  0.3134387407507724  0.28759069061421066  0.23967808514572092  1.0000
  C   C42       1.0  0.1865612592521566  0.7124093093669994  0.7396780850304654  1.0000
  C   C43       1.0  0.6865612592550856  0.7875906906048157  0.26032191526323106  1.0000
  C   C44       1.0  0.8134387407537014  0.21240930937639438  0.7603219151479754  1.0000
  C   C45       1.0  0.3703448551642731  0.2254225319525442  0.19660921255586816  1.0000
  C   C46       1.0  0.12965514483865587  0.7745774680286659  0.6966092124406126  1.0000
  C   C47       1.0  0.6296551448415848  0.7254225319431492  0.3033907873288762  1.0000
  C   C48       1.0  0.8703448551672021  0.2745774680380609  0.8033907872136206  1.0000
  C   C49       1.0  0.2725780288643763  0.20298400055516763  0.13833374365640003  1.0000
  C   C50       1.0  0.22742197113855264  0.7970159994260424  0.6383337435411444  1.0000
  C   C51       1.0  0.7274219711414817  0.7029840005457727  0.36166625675255193  1.0000
  C   C52       1.0  0.7725780288673053  0.2970159994354374  0.8616662566372962  1.0000
  C   C53       1.0  0.11723710892117105  0.2417331314920458  0.12202508892730736  1.0000
  C   C54       1.0  0.3827628910817579  0.7582668684891644  0.6220250893362593  1.0000
  C   C55       1.0  0.8827628910846869  0.7417331314826509  0.377974910957437  1.0000
  C   C56       1.0  0.6172371089241001  0.25826686849855923  0.8779749108421814  1.0000
  C   C57       1.0  0.060322239593922564  0.3039005635855986  0.16390427236102123  1.0000
  C   C58       1.0  0.4396777604090064  0.6960994363956116  0.6639042722457656  1.0000
  C   C59       1.0  0.9396777604119354  0.8039005635762037  0.3360957275237232  1.0000
  C   C60       1.0  0.5603222395968515  0.1960994364050065  0.8360957279326752  1.0000
  C   C61       1.0  0.15752517664361637  0.3270763777737497  0.22218855948079538  1.0000
  C   C62       1.0  0.3424748233593126  0.6729236222074604  0.7221885598897474  1.0000
  C   C63       1.0  0.8424748233622416  0.8270763783517178  0.277811440403949  1.0000
  C   C64       1.0  0.6575251766465454  0.17292362221685537  0.7778114402886934  1.0000
  C   C65       1.0  0.6124311470786984  0.38585775459020494  0.2931141784848763  1.0000
  C   C66       1.0  0.8875688529300886  0.6141422453910051  0.7931141783696206  1.0000
  C   C67       1.0  0.38756885292715965  0.88585775458081  0.2068858219240757  1.0000
  C   C68       1.0  0.11243114707576934  0.11414224540040009  0.7068858218088201  1.0000
  C   C69       1.0  0.634892759551511  0.41162300819711684  0.22398487111143917  1.0000
  C   C70       1.0  0.8651072404572758  0.5883769917840933  0.7239848715203911  1.0000
  C   C71       1.0  0.3651072404543469  0.9116230081877219  0.27601512877330525  1.0000
  C   C72       1.0  0.13489275954858213  0.08837699179348822  0.7760151286580497  1.0000
  C   C73       1.0  0.7589898815737711  0.46953065073400857  0.2091991574172192  1.0000
  C   C74       1.0  0.7410101184350157  0.5304693492472016  0.7091991573019636  1.0000
  C   C75       1.0  0.24101011843208683  0.9695306507246136  0.29080084246752524  1.0000
  C   C76       1.0  0.2589898815708422  0.03046934925659646  0.7908008428764772  1.0000
  C   C77       1.0  0.8577402162376712  0.5026086244492187  0.2632663689279832  1.0000
  C   C78       1.0  0.6422597837711157  0.49739137553199136  0.7632663688127276  1.0000
  C   C79       1.0  0.1422597837681867  0.0026086244586136873  0.23673363148096876  1.0000
  C   C80       1.0  0.3577402162347423  0.9973913755225963  0.7367336313657131  1.0000
  C   C81       1.0  0.8368707554086895  0.4760046334163562  0.3319299728875107  1.0000
  C   C82       1.0  0.6631292446000975  0.5239953665648539  0.8319299732964628  1.0000
  C   C83       1.0  0.16312924459716843  0.9760046334069613  0.1680700269972337  1.0000
  C   C84       1.0  0.3368707554057606  0.023995366574248837  0.668070026881978  1.0000
  C   C85       1.0  0.7168585588153429  0.4168100090911269  0.34706651147195655  1.0000
  C   C86       1.0  0.7831414411934441  0.5831899908900832  0.847066511356701  1.0000
  C   C87       1.0  0.28314144119051504  0.916810009081732  0.15293348841278784  1.0000
  C   C88       1.0  0.21685855881241392  0.08318999089947814  0.6529334882975322  1.0000
  C   C89       1.0  0.5799851093695418  0.22328682874084546  0.3266953212048182  1.0000
  C   C90       1.0  0.9200148906392451  0.7767131712403647  0.8266953210895626  1.0000
  C   C91       1.0  0.42001489063631625  0.7232868287314506  0.17330467920413375  1.0000
  C   C92       1.0  0.07998510936661277  0.2767131712497596  0.6733046790888781  1.0000
  C   C93       1.0  0.49645074670840184  0.15228051992246744  0.3436882529501752  1.0000
  C   C94       1.0  0.003549253294527178  0.8477194800587426  0.8436882528349195  1.0000
  C   C95       1.0  0.5035492532974561  0.6522805199130725  0.15631174693456923  1.0000
  C   C96       1.0  0.9964507467113308  0.34771948006813763  0.6563117473435213  1.0000
  C   C97       1.0  0.5934193294089811  0.08348229859069596  0.34961703517945486  1.0000
  C   C98       1.0  0.9065806705998058  0.9165177013905141  0.8496170350641993  1.0000
  C   C99       1.0  0.40658067059687686  0.5834822985813011  0.15038296522949718  1.0000
  C   C100      1.0  0.09341932940605212  0.41651770139990907  0.6503829651142415  1.0000
  C   C101      1.0  0.7739867830074444  0.08398616271133631  0.3380098831204637  1.0000
  C   C102      1.0  0.7260132170013426  0.9160138372698738  0.8380098830052081  1.0000
  C   C103      1.0  0.22601321699841365  0.5839861627019414  0.16199011676428068  1.0000
  C   C104      1.0  0.27398678300451534  0.4160138372792687  0.6619901171732328  1.0000
  C   C105      1.0  0.8572342985012944  0.1541633233931933  0.320501008952893  1.0000
  C   C106      1.0  0.6427657015074926  0.8458366765880168  0.8205010088376374  1.0000
  C   C107      1.0  0.1427657015045636  0.6541633233837983  0.17949899093185134  1.0000
  C   C108      1.0  0.35723429849836535  0.34583667659741174  0.6794989908165957  1.0000
  C   C109      1.0  0.7611094571913997  0.22363467865839196  0.3146755454212248  1.0000
  C   C110      1.0  0.7388905428173873  0.7763653213228181  0.8146755453059692  1.0000
  C   C111      1.0  0.23889054281445837  0.723634678648997  0.18532445498772718  1.0000
  C   C112      1.0  0.2611094571884706  0.2763653213322131  0.6853244548724715  1.0000
  O   O1        1.0  0.28462102947052625  0.4570436631756267  0.30042194333274846  1.0000
  O   O2        1.0  0.2153789705324027  0.5429563368055833  0.8004219432174928  1.0000
  O   O3        1.0  0.7153789705353317  0.9570436631662318  0.19957805655199592  1.0000
  O   O4        1.0  0.7846210294734552  0.04295633681497832  0.6995780569609479  1.0000
  P   P1        1.0  0.4511564553631329  0.31216005010983094  0.31455243474133565  1.0000
  P   P2        1.0  0.04884354463979609  0.6878399498713792  0.8145524351502877  1.0000
  P   P3        1.0  0.548843544642725  0.812160050100436  0.1854475651434087  1.0000
  P   P4        1.0  0.9511564553660619  0.18783994988077407  0.6854475650281531  1.0000
  Cl  Cl1       1.0  0.2117656031424774  0.07259803277405888  0.46413487362800165  1.0000
  Cl  Cl2       1.0  0.2882343968604516  0.9274019672071512  0.9641348740369536  1.0000
  Cl  Cl3       1.0  0.7882343968633806  0.5725980327646639  0.03586512625674274  1.0000
  Cl  Cl4       1.0  0.7117656031454064  0.42740196721654616  0.5358651261414872  1.0000
  Cl  Cl5       1.0  0.2858580833316979  0.891160159395471  0.4710861930317232  1.0000
  Cl  Cl6       1.0  0.21414191667123114  0.10883984058573899  0.9710861929164676  1.0000
  Cl  Cl7       1.0  0.7141419166741602  0.39116015940486604  0.02891380737722878  1.0000
  Cl  Cl8       1.0  0.7858580833346268  0.608839840576344  0.5289138072619732  1.0000
