data_image0
_chemical_formula_structural       C60Br28
_chemical_formula_sum              "C60 Br28"
_cell_length_a       12.504013409820077
_cell_length_b       12.797188035417982
_cell_length_c       12.894378034086044
_cell_angle_alpha    60.52550010781095
_cell_angle_beta     62.74690008070198
_cell_angle_gamma    85.04051419550129

_space_group_name_H-M_alt    "P 1"
_space_group_IT_number       1

loop_
  _space_group_symop_operation_xyz
  'x, y, z'

loop_
  _atom_site_type_symbol
  _atom_site_label
  _atom_site_symmetry_multiplicity
  _atom_site_fract_x
  _atom_site_fract_y
  _atom_site_fract_z
  _atom_site_occupancy
  C   C1        1.0  0.3410895689639683  0.2630838640582793  0.8495974489520125  1.0000
  C   C2        1.0  0.6589104310853823  0.7369161360320755  0.15040255159387922  1.0000
  C   C3        1.0  0.33486729800425497  0.18562813765912628  0.7934134637129272  1.0000
  C   C4        1.0  0.6651327021152262  0.8143718616461768  0.20658653683447836  1.0000
  C   C5        1.0  0.4685477664638455  0.18776096683727578  0.7118106696406896  1.0000
  C   C6        1.0  0.5314522336556358  0.8122390324680275  0.28818933090671595  1.0000
  C   C7        1.0  0.5180345320359098  0.1747670728737505  0.5905934934631543  1.0000
  C   C8        1.0  0.48196546845149196  0.8252329276815398  0.40940650606795803  1.0000
  C   C9        1.0  0.6435471877621048  0.25099300531601904  0.4839284715600954  1.0000
  C   C10       1.0  0.35645281279542745  0.7490069944542198  0.5160715279725308  1.0000
  C   C11       1.0  0.6530533135871255  0.3110173841903083  0.3453551432709289  1.0000
  C   C12       1.0  0.3469466869704069  0.6889826155799306  0.6546448562616971  1.0000
  C   C13       1.0  0.5203320704705112  0.3036535455972776  0.38029224501946807  1.0000
  C   C14       1.0  0.47966792957883936  0.6963464544930773  0.6197077555264235  1.0000
  C   C15       1.0  0.4763096425617319  0.3935111644061403  0.2872135065783592  1.0000
  C   C16       1.0  0.5236903574876186  0.6064888356842145  0.7127864939675325  1.0000
  C   C17       1.0  0.5545199784851861  0.5184691276035506  0.20078381855321978  1.0000
  C   C18       1.0  0.44548002200221554  0.4815308729517397  0.7992161809778925  1.0000
  C   C19       1.0  0.6873227506260078  0.5386665987428563  0.1551444980273672  1.0000
  C   C20       1.0  0.3126772499315246  0.4613334010273826  0.8448555015052589  1.0000
  C   C21       1.0  0.7190677537741054  0.43904872545088  0.25768757686695587  1.0000
  C   C22       1.0  0.28093224671329625  0.5609512751044105  0.7423124226641564  1.0000
  C   C23       1.0  0.44598925502991327  0.22848980258951263  0.5148466173846675  1.0000
  C   C24       1.0  0.5540107454574885  0.7715101979657777  0.48515338214644466  1.0000
  C   C25       1.0  0.31337725270654204  0.23105624654970047  0.5819422616425038  1.0000
  C   C26       1.0  0.6866227469812316  0.7689437540042244  0.41805773788862277  1.0000
  C   C27       1.0  0.27535729709432055  0.23908672490436972  0.7064074718061049  1.0000
  C   C28       1.0  0.724642702155402  0.7609132751846196  0.293592528739801  1.0000
  C   C29       1.0  0.2799487474594669  0.34527883118887737  0.49607453385930883  1.0000
  C   C30       1.0  0.7200512526600142  0.6547211681164259  0.5039254666880967  1.0000
  C   C31       1.0  0.3530980674269058  0.41842259204768656  0.3627465078909257  1.0000
  C   C32       1.0  0.6469019322608679  0.5815774085062383  0.6372534916402008  1.0000
  C   C33       1.0  0.2067538943351431  0.3267626286293668  0.7074161458464737  1.0000
  C   C34       1.0  0.7932461062223892  0.673237371140872  0.2925838536861524  1.0000
  C   C35       1.0  0.1874074859087802  0.38911237411024785  0.5849090443293493  1.0000
  C   C36       1.0  0.8125925133409426  0.6108876259787411  0.4150909562165567  1.0000
  C   C37       1.0  0.21244192151229008  0.5239628952329823  0.5185130701199377  1.0000
  C   C38       1.0  0.7875580782456144  0.476037104535891  0.4814869294127027  1.0000
  C   C39       1.0  0.5395097243371907  0.23367878765617212  0.7389697510122502  1.0000
  C   C40       1.0  0.4604902754207138  0.7663212121127012  0.26103024852039025  1.0000
  C   C41       1.0  0.4641870652830872  0.26935798903794106  0.8431271176149026  1.0000
  C   C42       1.0  0.5358129352043146  0.7306420115173491  0.15687288191620963  1.0000
  C   C43       1.0  0.48562283449125443  0.6057977652750346  0.20225290291339837  1.0000
  C   C44       1.0  0.5143771655580961  0.39420223481532  0.7977470976324933  1.0000
  C   C45       1.0  0.3510140731380653  0.5528532150715624  0.2886942249144259  1.0000
  C   C46       1.0  0.6489859266198392  0.44714678469731084  0.7113057746182144  1.0000
  C   C47       1.0  0.2874927522483512  0.598069592529091  0.3839560369329826  1.0000
  C   C48       1.0  0.7125072478711301  0.4019304067762123  0.6160439636144229  1.0000
  C   C49       1.0  0.6735484595861033  0.27651971871876524  0.6493393437600576  1.0000
  C   C50       1.0  0.3264515409012984  0.7234802818365251  0.3506606557710546  1.0000
  C   C51       1.0  0.7133809005107632  0.2971027438274365  0.5104975633149765  1.0000
  C   C52       1.0  0.2866190995385875  0.7028972562629183  0.4895024372309151  1.0000
  C   C53       1.0  0.19097573066660753  0.5887768553681303  0.5953654563336488  1.0000
  C   C54       1.0  0.809024268583115  0.411223144720859  0.40463454421225725  1.0000
  C   C55       1.0  0.7904891754223575  0.48485492847010697  0.28435189067457545  1.0000
  C   C56       1.0  0.20951082506504423  0.5151450720851833  0.7156481088565367  1.0000
  C   C57       1.0  0.18385325072396203  0.37774351797373923  0.795491813712386  1.0000
  C   C58       1.0  0.8161467493253887  0.6222564821166153  0.2045081868335057  1.0000
  C   C59       1.0  0.2732905703844458  0.35012906540377536  0.8497792938005443  1.0000
  C   C60       1.0  0.7267094288652768  0.6498709346852138  0.1502207067453617  1.0000
  Br  Br1       1.0  0.24169977824430994  0.013699043033525963  0.9436776078321227  1.0000
  Br  Br2       1.0  0.7583002214434639  0.9863009575203989  0.05632239169900385  1.0000
  Br  Br3       1.0  0.5213730287023146  0.9951970996131776  0.6535278545468298  1.0000
  Br  Br4       1.0  0.47862697141716665  0.0048028996921255914  0.34647214600057574  1.0000
  Br  Br5       1.0  0.7388709736016388  0.21519772346323562  0.25240707711908084  1.0000
  Br  Br6       1.0  0.2611290265178425  0.7848022758420675  0.7475929234283247  1.0000
  Br  Br7       1.0  0.4694714774569455  0.32754385771157285  0.17532174517216087  1.0000
  Br  Br8       1.0  0.5305285231005868  0.6724561420586658  0.8246782543604653  1.0000
  Br  Br9       1.0  0.7843865681433994  0.5518645513850252  0.9721892923949611  1.0000
  Br  Br10      1.0  0.2156134323440024  0.44813544917026515  0.027810707136151025  1.0000
  Br  Br11      1.0  0.2142888049045723  0.08434941418644702  0.6215212181543879  1.0000
  Br  Br12      1.0  0.7857111956529602  0.9156505855837916  0.37847878137823815  1.0000
  Br  Br13      1.0  0.01589211565539778  0.3288175909390958  0.6379328537199042  1.0000
  Br  Br14      1.0  0.9841078836644556  0.6711824083648421  0.3620671468275156  1.0000
  Br  Br15      1.0  0.4549702601233638  0.15149737173600217  0.02583170038335884  1.0000
  Br  Br16      1.0  0.5450297399259867  0.8485026283543528  0.9741683001625329  1.0000
  Br  Br17      1.0  0.2704750077529433  0.5919657195878885  0.17213664551742003  1.0000
  Br  Br18      1.0  0.729524992804589  0.40803428018235033  0.8278633540152059  1.0000
  Br  Br19      1.0  0.7625310288771793  0.15223261104660163  0.7365928791677844  1.0000
  Br  Br20      1.0  0.23746897124230207  0.8477673882587017  0.2634071213796211  1.0000
  Br  Br21      1.0  0.02295526229873466  0.6351807677006294  0.6531930141596294  1.0000
  Br  Br22      1.0  0.9770447382587979  0.36481923206960926  0.3468069853729967  1.0000
  Br  Br23      1.0  0.009194262223961292  0.31227849309071454  0.9515165745037691  1.0000
  Br  Br24      1.0  0.9908057383335711  0.6877215066795244  0.048483425028856934  1.0000
  Br  Br25      1.0  0.15449223090860661  0.11124145465378522  0.36920822807888243  1.0000
  Br  Br26      1.0  0.8455077684112469  0.8887585446501526  0.6307917724685373  1.0000
  Br  Br27      1.0  0.08106526867517347  0.10513598362733022  0.23596054718824097  1.0000
  Br  Br28      1.0  0.9189347305745492  0.8948640164616589  0.764039453357665  1.0000
