data_image0
_chemical_formula_structural       H124C56N16O20Br12
_chemical_formula_sum              "H124 C56 N16 O20 Br12"
_cell_length_a       26.60463153453196
_cell_length_b       7.338214631691206
_cell_length_c       10.753725401529474
_cell_angle_alpha    90.0
_cell_angle_beta     90.0
_cell_angle_gamma    90.0

_space_group_name_H-M_alt    "P 1"
_space_group_IT_number       1

loop_
  _space_group_symop_operation_xyz
  'x, y, z'

loop_
  _atom_site_type_symbol
  _atom_site_label
  _atom_site_symmetry_multiplicity
  _atom_site_fract_x
  _atom_site_fract_y
  _atom_site_fract_z
  _atom_site_occupancy
  H   H1        1.0  0.6264917947976844  0.7499999994864686  0.8208066051923362  1.0000
  H   H2        1.0  0.8735082051347356  0.25000000028306596  0.3208066052634499  1.0000
  H   H3        1.0  0.3735082054078452  0.25000000028306596  0.17919339466543643  1.0000
  H   H4        1.0  0.12649179469491958  0.7499999994864686  0.6791933945943227  1.0000
  H   H5        1.0  0.7174229331169643  0.7499999994864686  0.5364341086094255  1.0000
  H   H6        1.0  0.7825770671913301  0.25000000028306596  0.03643410868053921  1.0000
  H   H7        1.0  0.2825770670885654  0.25000000028306596  0.4635658912483471  1.0000
  H   H8        1.0  0.2174229330141994  0.7499999994864686  0.9635658911772335  1.0000
  H   H9        1.0  0.8195538705995307  0.7499999994864686  0.18672858149366578  1.0000
  H   H10       1.0  0.6804461293328894  0.25000000028306596  0.6867285823524624  1.0000
  H   H11       1.0  0.1804461296059989  0.25000000028306596  0.8132714183641068  1.0000
  H   H12       1.0  0.3195538704967659  0.7499999994864686  0.31327141843522055  1.0000
  H   H13       1.0  0.689851443955466  0.5843447071555268  0.3612138021905909  1.0000
  H   H14       1.0  0.8101485559769539  0.41565529397673684  0.8612138021194772  1.0000
  H   H15       1.0  0.31014855625006355  0.084344706589395  0.6387861976671818  1.0000
  H   H16       1.0  0.18985144385270125  0.9156552931801395  0.13878619773829542  1.0000
  H   H17       1.0  0.31014855625006355  0.41565529397673684  0.6387861976671818  1.0000
  H   H18       1.0  0.18985144385270125  0.5843447071555268  0.13878619773829542  1.0000
  H   H19       1.0  0.689851443955466  0.9156552931801395  0.3612138021905909  1.0000
  H   H20       1.0  0.8101485559769539  0.084344706589395  0.8612138021194772  1.0000
  H   H21       1.0  0.7389266866742136  0.46398178315688093  0.4394664810139049  1.0000
  H   H22       1.0  0.7610733132582064  0.5360182166126535  0.9394664809427913  1.0000
  H   H23       1.0  0.26107331315544163  0.9639817837230128  0.5605335188438677  1.0000
  H   H24       1.0  0.23892668694732316  0.03601821740925092  0.06053351891498136  1.0000
  H   H25       1.0  0.26107331315544163  0.5360182166126535  0.5605335188438677  1.0000
  H   H26       1.0  0.23892668694732316  0.46398178315688093  0.06053351891498136  1.0000
  H   H27       1.0  0.7389266866742136  0.03601821740925092  0.4394664810139049  1.0000
  H   H28       1.0  0.7610733132582064  0.9639817837230128  0.9394664809427913  1.0000
  H   H29       1.0  0.7870518850381956  0.463880338863226  0.2593452711376969  1.0000
  H   H30       1.0  0.7129481148942245  0.5361196609063084  0.7593452710665832  1.0000
  H   H31       1.0  0.21294811516733408  0.9638803394293579  0.7406547287200757  1.0000
  H   H32       1.0  0.2870518849354307  0.03611966170290582  0.24065472879118943  1.0000
  H   H33       1.0  0.21294811516733408  0.5361196609063084  0.7406547287200757  1.0000
  H   H34       1.0  0.2870518849354307  0.463880338863226  0.24065472879118943  1.0000
  H   H35       1.0  0.7870518850381956  0.03611966170290582  0.2593452711376969  1.0000
  H   H36       1.0  0.7129481148942245  0.9638803394293579  0.7593452710665832  1.0000
  H   H37       1.0  0.7392020500067406  0.5918818442898292  0.1793354114961603  1.0000
  H   H38       1.0  0.7607979503015538  0.4081181568424346  0.6793354114250466  1.0000
  H   H39       1.0  0.2607979501987891  0.09188184372369726  0.8206645883616124  1.0000
  H   H40       1.0  0.2392020499039757  0.9081181560458371  0.320664588432726  1.0000
  H   H41       1.0  0.2607979501987891  0.4081181568424346  0.8206645883616124  1.0000
  H   H42       1.0  0.2392020499039757  0.5918818442898292  0.320664588432726  1.0000
  H   H43       1.0  0.7392020500067406  0.9081181560458371  0.1793354114961603  1.0000
  H   H44       1.0  0.7607979503015538  0.09188184372369726  0.6793354114250466  1.0000
  H   H45       1.0  0.8518016105799331  0.872285795833255  0.3732626610894401  1.0000
  H   H46       1.0  0.648198389352487  0.12771420393627939  0.8732626610183265  1.0000
  H   H47       1.0  0.14819838924972215  0.3722857952671232  0.6267373387683325  1.0000
  H   H48       1.0  0.3518016108530427  0.6277142045024113  0.12673733883944613  1.0000
  H   H49       1.0  0.14819838924972215  0.12771420393627939  0.6267373387683325  1.0000
  H   H50       1.0  0.3518016108530427  0.872285795833255  0.12673733883944613  1.0000
  H   H51       1.0  0.8518016105799331  0.6277142045024113  0.3732626610894401  1.0000
  H   H52       1.0  0.648198389352487  0.3722857952671232  0.8732626610183265  1.0000
  H   H53       1.0  0.8021443207097375  0.6274234280524033  0.5507175717131192  1.0000
  H   H54       1.0  0.6978556792226825  0.37257657171713116  0.05071757178423292  1.0000
  H   H55       1.0  0.1978556794957921  0.12742342748627136  0.44928242814465336  1.0000
  H   H56       1.0  0.3021443206069726  0.872576572283263  0.9492824280735396  1.0000
  H   H57       1.0  0.1978556794957921  0.37257657171713116  0.44928242814465336  1.0000
  H   H58       1.0  0.3021443206069726  0.6274234280524033  0.9492824280735396  1.0000
  H   H59       1.0  0.8021443207097375  0.872576572283263  0.5507175717131192  1.0000
  H   H60       1.0  0.6978556792226825  0.12742342748627136  0.05071757178423292  1.0000
  H   H61       1.0  0.5787658333104174  0.7499999994864686  0.40861318993462825  1.0000
  H   H62       1.0  0.9212341666220025  0.25000000028306596  0.9086131898635146  1.0000
  H   H63       1.0  0.4212341665192378  0.25000000028306596  0.5913868099231443  1.0000
  H   H64       1.0  0.07876583358352704  0.7499999994864686  0.09138680999425801  1.0000
  H   H65       1.0  0.4736591094540671  0.7499999994864686  0.06432245237558516  1.0000
  H   H66       1.0  0.026340890272823263  0.25000000028306596  0.5643224523044714  1.0000
  H   H67       1.0  0.5263408903755881  0.25000000028306596  0.9356775474821875  1.0000
  H   H68       1.0  0.9736591095568319  0.7499999994864686  0.4356775475533012  1.0000
  H   H69       1.0  0.6087710645034847  0.6282225938296855  0.220264861855512  1.0000
  H   H70       1.0  0.8912289354289352  0.37177740593984887  0.7202648617843983  1.0000
  H   H71       1.0  0.3912289353261705  0.128222594626283  0.779735138932171  1.0000
  H   H72       1.0  0.10877106440071992  0.8717774065059807  0.2797351380733743  1.0000
  H   H73       1.0  0.3912289353261705  0.37177740593984887  0.779735138932171  1.0000
  H   H74       1.0  0.10877106440071992  0.6282225938296855  0.2797351380733743  1.0000
  H   H75       1.0  0.6087710645034847  0.8717774065059807  0.220264861855512  1.0000
  H   H76       1.0  0.8912289354289352  0.128222594626283  0.7202648617843983  1.0000
  H   H77       1.0  0.5573598288987116  0.8725966071292547  0.04504826205912788  1.0000
  H   H78       1.0  0.9426401710337085  0.12740339264027967  0.5450482619880143  1.0000
  H   H79       1.0  0.442640171306818  0.37259660792585214  0.9549517377986447  1.0000
  H   H80       1.0  0.057359828795946775  0.6274033918436822  0.4549517378697584  1.0000
  H   H81       1.0  0.442640171306818  0.12740339264027967  0.9549517377986447  1.0000
  H   H82       1.0  0.057359828795946775  0.8725966071292547  0.4549517378697584  1.0000
  H   H83       1.0  0.5573598288987116  0.6274033918436822  0.04504826205912788  1.0000
  H   H84       1.0  0.9426401710337085  0.37259660792585214  0.5450482619880143  1.0000
  H   H85       1.0  0.4934066300809955  0.46370156240793753  0.16100104153243053  1.0000
  H   H86       1.0  0.006593370021769255  0.5362984373615969  0.6610010414613168  1.0000
  H   H87       1.0  0.5065933701245341  0.9637015629740694  0.8389989583253421  1.0000
  H   H88       1.0  0.9934066298078859  0.03629843679546504  0.3389989583964558  1.0000
  H   H89       1.0  0.5065933701245341  0.5362984373615969  0.8389989583253421  1.0000
  H   H90       1.0  0.9934066298078859  0.46370156240793753  0.3389989583964558  1.0000
  H   H91       1.0  0.4934066300809955  0.03629843679546504  0.16100104153243053  1.0000
  H   H92       1.0  0.006593370021769255  0.9637015629740694  0.6610010414613168  1.0000
  H   H93       1.0  0.44660145714019667  0.591066689609811  0.245262656569683  1.0000
  H   H94       1.0  0.05339854296256814  0.40893331015972334  0.7452626564985694  1.0000
  H   H95       1.0  0.5533985426894585  0.09106668904367922  0.7547373442179998  1.0000
  H   H96       1.0  0.9466014572429614  0.9089333107258551  0.2547373442891136  1.0000
  H   H97       1.0  0.5533985426894585  0.40893331015972334  0.7547373442179998  1.0000
  H   H98       1.0  0.9466014572429614  0.591066689609811  0.2547373442891136  1.0000
  H   H99       1.0  0.44660145714019667  0.9089333107258551  0.245262656569683  1.0000
  H   H100      1.0  0.05339854296256814  0.09106668904367922  0.7452626564985694  1.0000
  H   H101      1.0  0.498100702232978  0.5911347347713471  0.4199595787853837  1.0000
  H   H102      1.0  0.001899297869786827  0.4088652663609166  0.91995957871427  1.0000
  H   H103      1.0  0.5018992979725516  0.0911347342052153  0.5800404210723888  1.0000
  H   H104      1.0  0.9981007019598684  0.9088652655643191  0.08004042114350253  1.0000
  H   H105      1.0  0.5018992979725516  0.4088652663609166  0.5800404210723888  1.0000
  H   H106      1.0  0.9981007019598684  0.5911347347713471  0.08004042114350253  1.0000
  H   H107      1.0  0.498100702232978  0.9088652655643191  0.4199595787853837  1.0000
  H   H108      1.0  0.001899297869786827  0.0911347342052153  0.91995957871427  1.0000
  H   H109      1.0  0.5449896827618318  0.4642869786454849  0.3370506019694802  1.0000
  H   H110      1.0  0.9550103171705882  0.5357130211240495  0.8370506018983666  1.0000
  H   H111      1.0  0.45501031744369774  0.9642869792116168  0.6629493978882923  1.0000
  H   H112      1.0  0.04498968265906701  0.035713020557917634  0.16294939795940605  1.0000
  H   H113      1.0  0.45501031744369774  0.5357130211240495  0.6629493978882923  1.0000
  H   H114      1.0  0.04498968265906701  0.4642869786454849  0.16294939795940605  1.0000
  H   H115      1.0  0.5449896827618318  0.035713020557917634  0.3370506019694802  1.0000
  H   H116      1.0  0.9550103171705882  0.9642869792116168  0.8370506018983666  1.0000
  H   H117      1.0  0.3434714594013173  0.7499999994864686  0.6329066036065962  1.0000
  H   H118      1.0  0.15652854032557312  0.25000000028306596  0.13290660367770993  1.0000
  H   H119      1.0  0.6565285404283379  0.25000000028306596  0.36709339718108663  1.0000
  H   H120      1.0  0.8434714595040821  0.7499999994864686  0.8670933971099729  1.0000
  H   H121      1.0  0.3569306884658216  0.7499999994864686  0.7732864090817567  1.0000
  H   H122      1.0  0.1430693112610688  0.25000000028306596  0.27328640915287045  1.0000
  H   H123      1.0  0.6430693113638336  0.25000000028306596  0.22671359077601583  1.0000
  H   H124      1.0  0.8569306885685863  0.7499999994864686  0.7267135907049022  1.0000
  C   C1        1.0  0.6346892257493939  0.7499999994864686  0.5892423335543577  1.0000
  C   C2        1.0  0.8653107745589005  0.25000000028306596  0.08924233362547142  1.0000
  C   C3        1.0  0.3653107744561357  0.25000000028306596  0.4107576663034149  1.0000
  C   C4        1.0  0.1346892256466291  0.7499999994864686  0.9107576662323013  1.0000
  C   C5        1.0  0.585795316118975  0.7499999994864686  0.6668863981760231  1.0000
  C   C6        1.0  0.914204683813445  0.25000000028306596  0.16688639824713689  1.0000
  C   C7        1.0  0.41420468371068025  0.25000000028306596  0.3331136016817494  1.0000
  C   C8        1.0  0.08579531639208457  0.7499999994864686  0.8331136016106356  1.0000
  C   C9        1.0  0.7300210358031437  0.5825817347365778  0.3815712998786817  1.0000
  C   C10       1.0  0.7699789641292764  0.41741826503295665  0.8815712998075681  1.0000
  C   C11       1.0  0.2699789640265116  0.08258173417044593  0.6184286999790909  1.0000
  C   C12       1.0  0.2300210357003788  0.9174182655990885  0.1184287000502046  1.0000
  C   C13       1.0  0.2699789640265116  0.41741826503295665  0.6184286999790909  1.0000
  C   C14       1.0  0.2300210357003788  0.5825817347365778  0.1184287000502046  1.0000
  C   C15       1.0  0.7300210358031437  0.9174182655990885  0.3815712998786817  1.0000
  C   C16       1.0  0.7699789641292764  0.08258173417044593  0.8815712998075681  1.0000
  C   C17       1.0  0.7624146240729675  0.5832407192774653  0.26352548853413577  1.0000
  C   C18       1.0  0.7375853758594525  0.41675928049206895  0.763525488463022  1.0000
  C   C19       1.0  0.23758537575668773  0.08324072007406287  0.7364745113236368  1.0000
  C   C20       1.0  0.26241462397020265  0.9167592796954716  0.23647451139475054  1.0000
  C   C21       1.0  0.23758537575668773  0.41675928049206895  0.7364745113236368  1.0000
  C   C22       1.0  0.26241462397020265  0.5832407192774653  0.23647451139475054  1.0000
  C   C23       1.0  0.7624146240729675  0.9167592796954716  0.26352548853413577  1.0000
  C   C24       1.0  0.7375853758594525  0.08324072007406287  0.763525488463022  1.0000
  C   C25       1.0  0.8282878859418742  0.7499999994864686  0.37779808283203586  1.0000
  C   C26       1.0  0.6717121139905458  0.25000000028306596  0.8777980827609221  1.0000
  C   C27       1.0  0.17171211388778093  0.25000000028306596  0.6222019170257368  1.0000
  C   C28       1.0  0.32828788621498384  0.7499999994864686  0.1222019170968505  1.0000
  C   C29       1.0  0.7954840525616893  0.7499999994864686  0.4950449952202463  1.0000
  C   C30       1.0  0.7045159473707306  0.25000000028306596  0.9950449951491326  1.0000
  C   C31       1.0  0.20451594726796585  0.25000000028306596  0.5049550046375263  1.0000
  C   C32       1.0  0.29548405283479895  0.7499999994864686  0.0049550047086399885  1.0000
  C   C33       1.0  0.5850044312697452  0.7499999994864686  0.2167985961096247  1.0000
  C   C34       1.0  0.9149955686626747  0.25000000028306596  0.7167985969684213  1.0000
  C   C35       1.0  0.4149955685599099  0.25000000028306596  0.783201403748148  1.0000
  C   C36       1.0  0.08500443116698048  0.7499999994864686  0.2832014038192616  1.0000
  C   C37       1.0  0.5513400601305508  0.7499999994864686  0.10110938669173715  1.0000
  C   C38       1.0  0.9486599398018691  0.25000000028306596  0.6011093866206234  1.0000
  C   C39       1.0  0.4486599400749788  0.25000000028306596  0.8988906131660354  1.0000
  C   C40       1.0  0.05134006002778603  0.7499999994864686  0.39889061323714914  1.0000
  C   C41       1.0  0.4863317788560992  0.5833213328912245  0.21919857463207507  1.0000
  C   C42       1.0  0.013668221246665625  0.41667866687830996  0.7191985745609614  1.0000
  C   C43       1.0  0.5136682213494305  0.08332133368782188  0.7808014261556078  1.0000
  C   C44       1.0  0.9863317785829896  0.9166786660817126  0.28080142622672155  1.0000
  C   C45       1.0  0.5136682213494305  0.41667866687830996  0.7808014261556078  1.0000
  C   C46       1.0  0.9863317785829896  0.5833213328912245  0.28080142622672155  1.0000
  C   C47       1.0  0.4863317788560992  0.9166786660817126  0.21919857463207507  1.0000
  C   C48       1.0  0.013668221246665625  0.08332133368782188  0.7191985745609614  1.0000
  C   C49       1.0  0.5203495335776896  0.5838882078340797  0.33454723694993355  1.0000
  C   C50       1.0  0.9796504663547303  0.4161117919354546  0.8345472368788199  1.0000
  C   C51       1.0  0.4796504662519655  0.08388820863067721  0.6654527629078391  1.0000
  C   C52       1.0  0.02034953347492487  0.9161117911388572  0.16545276297895278  1.0000
  C   C53       1.0  0.4796504662519655  0.4161117919354546  0.6654527629078391  1.0000
  C   C54       1.0  0.02034953347492487  0.5838882078340797  0.16545276297895278  1.0000
  C   C55       1.0  0.5203495335776896  0.9161117911388572  0.33454723694993355  1.0000
  C   C56       1.0  0.9796504663547303  0.08388820863067721  0.8345472368788199  1.0000
  N   N1        1.0  0.7415430529226862  0.7499999994864686  0.4560043953979476  1.0000
  N   N2        1.0  0.7584569473856082  0.25000000028306596  0.956004395326834  1.0000
  N   N3        1.0  0.2584569472828434  0.25000000028306596  0.543995604459825  1.0000
  N   N4        1.0  0.2415430528199214  0.7499999994864686  0.043995604530938634  1.0000
  N   N5        1.0  0.7949426626168106  0.7499999994864686  0.26532710511598045  1.0000
  N   N6        1.0  0.7050573373156094  0.25000000028306596  0.7653271050448667  1.0000
  N   N7        1.0  0.2050573372128446  0.25000000028306596  0.7346728947417922  1.0000
  N   N8        1.0  0.2949426625140458  0.7499999994864686  0.23467289481290587  1.0000
  N   N9        1.0  0.5525909908174428  0.7499999994864686  0.33072398514975715  1.0000
  N   N10       1.0  0.9474090091149772  0.25000000028306596  0.8307239850786434  1.0000
  N   N11       1.0  0.4474090090122124  0.25000000028306596  0.6692760156379257  1.0000
  N   N12       1.0  0.05259099109055241  0.7499999994864686  0.16927601477912918  1.0000
  N   N13       1.0  0.4976516323037631  0.7499999994864686  0.14382257703735182  1.0000
  N   N14       1.0  0.002348367799001698  0.25000000028306596  0.6438225769662381  1.0000
  N   N15       1.0  0.5023483679017665  0.25000000028306596  0.8561774228204208  1.0000
  N   N16       1.0  0.9976516320306534  0.7499999994864686  0.3561774228915345  1.0000
  O   O1        1.0  0.6295197096889483  0.7499999994864686  0.47288785050032334  1.0000
  O   O2        1.0  0.8704802902434716  0.25000000028306596  0.9728878504292097  1.0000
  O   O3        1.0  0.3704802901407069  0.25000000028306596  0.5271121493574492  1.0000
  O   O4        1.0  0.12951970996205794  0.7499999994864686  0.02711214942856293  1.0000
  O   O5        1.0  0.6760051995704663  0.7499999994864686  0.6476704955669972  1.0000
  O   O6        1.0  0.8239948003619536  0.25000000028306596  0.14767049563811085  1.0000
  O   O7        1.0  0.32399480025918886  0.25000000028306596  0.3523295042907755  1.0000
  O   O8        1.0  0.17600519984357593  0.7499999994864686  0.8523295042196617  1.0000
  O   O9        1.0  0.5441977386985339  0.7499999994864686  0.6177516852955129  1.0000
  O   O10       1.0  0.9558022616097605  0.25000000028306596  0.11775168536662671  1.0000
  O   O11       1.0  0.45580226150699565  0.25000000028306596  0.3822483145622596  1.0000
  O   O12       1.0  0.04419773859576914  0.7499999994864686  0.8822483154210561  1.0000
  O   O13       1.0  0.5906390528131944  0.7499999994864686  0.7901844953927718  1.0000
  O   O14       1.0  0.9093609471192257  0.25000000028306596  0.2901844954638855  1.0000
  O   O15       1.0  0.40936094701646075  0.25000000028306596  0.2098155053949111  1.0000
  O   O16       1.0  0.090639053086304  0.7499999994864686  0.7098155053237974  1.0000
  O   O17       1.0  0.32800550643497267  0.7499999994864686  0.716352836097559  1.0000
  O   O18       1.0  0.17199449366779213  0.25000000028306596  0.21635283616867265  1.0000
  O   O19       1.0  0.6719944933946824  0.25000000028306596  0.28364716376021365  1.0000
  O   O20       1.0  0.8280055065377375  0.7499999994864686  0.7836471636890999  1.0000
  Br  Br1       1.0  0.6774945417531825  0.7499999994864686  0.9891233635635852  1.0000
  Br  Br2       1.0  0.8225054585551119  0.25000000028306596  0.489123363634699  1.0000
  Br  Br3       1.0  0.32250545845234707  0.25000000028306596  0.010876637224097657  1.0000
  Br  Br4       1.0  0.17749454165041773  0.7499999994864686  0.5108766371529839  1.0000
  Br  Br5       1.0  0.4260009504468931  0.7499999994864686  0.908668296347814  1.0000
  Br  Br6       1.0  0.07399904927999727  0.25000000028306596  0.4086682964189277  1.0000
  Br  Br7       1.0  0.5739990493827621  0.25000000028306596  0.09133170350995856  1.0000
  Br  Br8       1.0  0.9260009505496579  0.7499999994864686  0.5913317034388448  1.0000
  Br  Br9       1.0  0.38304836610018783  0.7499999994864686  0.4358986439558243  1.0000
  Br  Br10      1.0  0.11695163400257698  0.25000000028306596  0.9358986438847106  1.0000
  Br  Br11      1.0  0.6169516341053417  0.25000000028306596  0.5641013559019483  1.0000
  Br  Br12      1.0  0.8830483658270781  0.7499999994864686  0.064101355973062  1.0000
