data_image0
_chemical_formula_structural       H120C128N8O40
_chemical_formula_sum              "H120 C128 N8 O40"
_cell_length_a       23.02948955429974
_cell_length_b       7.9794929993894215
_cell_length_c       15.593771917336401
_cell_angle_alpha    90.0
_cell_angle_beta     99.01032992235834
_cell_angle_gamma    90.0

_space_group_name_H-M_alt    "P 1"
_space_group_IT_number       1

loop_
  _space_group_symop_operation_xyz
  'x, y, z'

loop_
  _atom_site_type_symbol
  _atom_site_label
  _atom_site_symmetry_multiplicity
  _atom_site_fract_x
  _atom_site_fract_y
  _atom_site_fract_z
  _atom_site_occupancy
  H   H1        1.0  0.3644253124513306  0.7752233720204197  0.9146523198144327  1.0000
  H   H2        1.0  0.8644253124557806  0.2752233719821604  0.9146523199506352  1.0000
  H   H3        1.0  0.3644253121606519  0.22477662805609874  0.4146523197199937  1.0000
  H   H4        1.0  0.864425312165102  0.7247766280943579  0.4146523198561963  1.0000
  H   H5        1.0  0.6355746876985701  0.22477662805609874  0.08534767990474905  1.0000
  H   H6        1.0  0.13557468769412004  0.7247766280943579  0.0853476797685464  1.0000
  H   H7        1.0  0.6355746875495982  0.7752233720204197  0.5853476798985306  1.0000
  H   H8        1.0  0.13557468754514818  0.2752233719821604  0.585347679762328  1.0000
  H   H9        1.0  0.434060098527185  0.49652339569734144  0.8695320526215048  1.0000
  H   H10       1.0  0.934060098531635  0.9965233957356006  0.8695320527577074  1.0000
  H   H11       1.0  0.43406009867615686  0.503476604379177  0.36953205262772315  1.0000
  H   H12       1.0  0.9340600986806069  0.0034766043409177423  0.36953205276392587  1.0000
  H   H13       1.0  0.5659399011830651  0.503476604379177  0.13046794699701958  1.0000
  H   H14       1.0  0.06593990117861508  0.0034766043409177423  0.13046794686081692  1.0000
  H   H15       1.0  0.5659399014737437  0.49652339569734144  0.6304679470914586  1.0000
  H   H16       1.0  0.06593990146929374  0.9965233957356006  0.6304679469552559  1.0000
  H   H17       1.0  0.45823055765389126  0.6417499896787726  0.9527751707616118  1.0000
  H   H18       1.0  0.9582305576583413  0.14174998964051344  0.9527751708978145  1.0000
  H   H19       1.0  0.45823055780286315  0.35825001039774573  0.45277517076783025  1.0000
  H   H20       1.0  0.9582305578073131  0.858250010436005  0.45277517090403285  1.0000
  H   H21       1.0  0.5417694424960093  0.35825001039774573  0.04722482895756986  1.0000
  H   H22       1.0  0.0417694424922656  0.858250010436005  0.047224829462811396  1.0000
  H   H23       1.0  0.5417694423470375  0.6417499896787726  0.5472248289513514  1.0000
  H   H24       1.0  0.041769442343293724  0.14174998964051344  0.547224829456593  1.0000
  H   H25       1.0  0.35253459873572696  0.4049387035300672  0.9500892389912757  1.0000
  H   H26       1.0  0.852534598740177  0.9049387035683264  0.9500892391274783  1.0000
  H   H27       1.0  0.3525345988846988  0.5950612965464512  0.4500892389974941  1.0000
  H   H28       1.0  0.8525345988891488  0.09506129650819198  0.45008923913369675  1.0000
  H   H29       1.0  0.6474654009752293  0.5950612965464512  0.04991076126869284  1.0000
  H   H30       1.0  0.14746540097077931  0.09506129650819198  0.04991076113249018  1.0000
  H   H31       1.0  0.647465401265908  0.4049387035300672  0.5499107613631318  1.0000
  H   H32       1.0  0.14746540126145796  0.9049387035683264  0.5499107612269292  1.0000
  H   H33       1.0  0.42457470867379216  0.367670517440706  0.007714496700429294  1.0000
  H   H34       1.0  0.9245747086782422  0.8676705174789652  0.00771449683663195  1.0000
  H   H35       1.0  0.42457470852482027  0.6323294826358125  0.5077144966942109  1.0000
  H   H36       1.0  0.9245747085292703  0.1323294825975532  0.5077144968304136  1.0000
  H   H37       1.0  0.5754252914761084  0.6323294826358125  0.9922855030187524  1.0000
  H   H38       1.0  0.0754252914723647  0.1323294825975532  0.9922855035239939  1.0000
  H   H39       1.0  0.5754252916250804  0.367670517440706  0.4922855030249708  1.0000
  H   H40       1.0  0.07542529162133657  0.8676705174789652  0.4922855035302123  1.0000
  H   H41       1.0  0.4521900703707437  0.8025553365972027  0.28658413193329974  1.0000
  H   H42       1.0  0.9521900703751938  0.30255533655894346  0.2865841320695024  1.0000
  H   H43       1.0  0.45219007066142236  0.19744466347931572  0.7865841320277387  1.0000
  H   H44       1.0  0.9521900706658724  0.6974446635175748  0.7865841321639413  1.0000
  H   H45       1.0  0.5478099293402127  0.19744466347931572  0.7134158683266688  1.0000
  H   H46       1.0  0.0478099293357626  0.6974446635175748  0.7134158681904662  1.0000
  H   H47       1.0  0.5478099294891845  0.8025553365972027  0.21341586833288723  1.0000
  H   H48       1.0  0.04780992948473446  0.30255533655894346  0.2134158681966846  1.0000
  H   H49       1.0  0.3756474168707621  0.9173972632797777  0.3690451274134319  1.0000
  H   H50       1.0  0.8756474168752121  0.41739726324151843  0.3690451275496345  1.0000
  H   H51       1.0  0.3756474171614407  0.08260273679674077  0.8690451275078707  1.0000
  H   H52       1.0  0.8756474171658908  0.582602736835  0.8690451276440734  1.0000
  H   H53       1.0  0.6243525828394881  0.08260273679674077  0.6309548722050926  1.0000
  H   H54       1.0  0.12435258283503803  0.582602736835  0.6309548720688899  1.0000
  H   H55       1.0  0.62435258298846  0.9173972632797777  0.13095487221131094  1.0000
  H   H56       1.0  0.12435258298400989  0.41739726324151843  0.1309548720751083  1.0000
  H   H57       1.0  0.2697107375994738  0.877308421792671  0.31447799656023445  1.0000
  H   H58       1.0  0.7697107376039237  0.3773084217544117  0.31447799669643706  1.0000
  H   H59       1.0  0.26971073745050195  0.12269157828384746  0.8144779965540161  1.0000
  H   H60       1.0  0.7697107374549519  0.6226915783221066  0.8144779966902187  1.0000
  H   H61       1.0  0.7302892625511331  0.12269157828384746  0.6855220038003915  1.0000
  H   H62       1.0  0.23028926254668305  0.6226915783221066  0.6855220036641887  1.0000
  H   H63       1.0  0.7302892627001051  0.877308421792671  0.18552200380660983  1.0000
  H   H64       1.0  0.23028926269565494  0.3773084217544117  0.18552200367040717  1.0000
  H   H65       1.0  0.23646267391970244  0.7275556292165717  0.17684119927127792  1.0000
  H   H66       1.0  0.7364626739234461  0.2275556291783125  0.17684119876603638  1.0000
  H   H67       1.0  0.23646267377073055  0.2724443708599467  0.6768411992650595  1.0000
  H   H68       1.0  0.7364626737744744  0.7724443708982058  0.676841198759818  1.0000
  H   H69       1.0  0.7635373262309045  0.2724443708599467  0.823158801089348  1.0000
  H   H70       1.0  0.2635373262264544  0.7724443708982058  0.8231588009531453  1.0000
  H   H71       1.0  0.7635373263798764  0.7275556292165717  0.3231588010955664  1.0000
  H   H72       1.0  0.2635373263754263  0.2275556291783125  0.32315880095936367  1.0000
  H   H73       1.0  0.2086426793378573  0.5655434687824538  0.02804670777730675  1.0000
  H   H74       1.0  0.7086426793423073  0.06554346874419457  0.02804670791350941  1.0000
  H   H75       1.0  0.20864267918888543  0.43445653129406464  0.5280467077710883  1.0000
  H   H76       1.0  0.7086426791926292  0.9344565313323238  0.5280467072658469  1.0000
  H   H77       1.0  0.7913573208127495  0.43445653129406464  0.9719532925833191  1.0000
  H   H78       1.0  0.2913573208082995  0.9344565313323238  0.9719532924471165  1.0000
  H   H79       1.0  0.7913573209617214  0.5655434687824538  0.4719532925895375  1.0000
  H   H80       1.0  0.2913573209572714  0.06554346874419457  0.4719532924533349  1.0000
  H   H81       1.0  0.04998713897324482  0.5642033510580797  0.9870574731138911  1.0000
  H   H82       1.0  0.5499871389776949  0.06420335101982058  0.9870574732500936  1.0000
  H   H83       1.0  0.04998713912221669  0.4357966490184386  0.4870574731201094  1.0000
  H   H84       1.0  0.5499871391266667  0.9357966490566978  0.4870574732563121  1.0000
  H   H85       1.0  0.9500128611773621  0.4357966490184386  0.01294252724673483  1.0000
  H   H86       1.0  0.45001286117291206  0.9357966490566978  0.012942527110532174  1.0000
  H   H87       1.0  0.9500128610283901  0.5642033510580797  0.5129425272405165  1.0000
  H   H88       1.0  0.4500128610239402  0.06420335101982058  0.5129425271043138  1.0000
  H   H89       1.0  0.9945806674047851  0.40139964910616327  0.8638650359827461  1.0000
  H   H90       1.0  0.49458066740033513  0.9013996491444224  0.8638650358465433  1.0000
  H   H91       1.0  0.9945806675537571  0.5986003497171427  0.36386503598896436  1.0000
  H   H92       1.0  0.4945806675493071  0.09860035093209596  0.3638650358527617  1.0000
  H   H93       1.0  0.005419332745821637  0.5986003497171427  0.13613496437787992  1.0000
  H   H94       1.0  0.5054193327495655  0.09860035093209596  0.1361349638726384  1.0000
  H   H95       1.0  0.005419332596849768  0.40139964910616327  0.6361349643716615  1.0000
  H   H96       1.0  0.5054193326005936  0.9013996491444224  0.63613496386642  1.0000
  H   H97       1.0  0.04820148851664167  0.22892211073307225  0.7686184032975786  1.0000
  H   H98       1.0  0.5482014885210917  0.7289221107713314  0.7686184034337812  1.0000
  H   H99       1.0  0.048201488225963  0.7710778893434462  0.2686184032031396  1.0000
  H   H100      1.0  0.548201488230413  0.27107788930518695  0.2686184033393422  1.0000
  H   H101      1.0  0.951798511633259  0.7710778893434462  0.23138159642160314  1.0000
  H   H102      1.0  0.4517985116295152  0.27107788930518695  0.23138159692684468  1.0000
  H   H103      1.0  0.9517985114842871  0.22892211073307225  0.7313815964153847  1.0000
  H   H104      1.0  0.45179851148054334  0.7289221107713314  0.7313815969206263  1.0000
  H   H105      1.0  0.14470342846795123  0.1904476224387042  0.7277103097436479  1.0000
  H   H106      1.0  0.6447034284724013  0.6904476224769633  0.7277103098798504  1.0000
  H   H107      1.0  0.14470342817727255  0.8095523776378142  0.22771030964920883  1.0000
  H   H108      1.0  0.6447034281817227  0.309552377599555  0.22771030978541146  1.0000
  H   H109      1.0  0.8552965716826557  0.8095523776378142  0.27228969061697816  1.0000
  H   H110      1.0  0.3552965716782056  0.309552377599555  0.2722896904807755  1.0000
  H   H111      1.0  0.8552965715336838  0.1904476224387042  0.7722896906107598  1.0000
  H   H112      1.0  0.3552965715292338  0.6904476224769633  0.7722896904745571  1.0000
  H   H113      1.0  0.2130262534329433  0.3814612820930994  0.9176014027862739  1.0000
  H   H114      1.0  0.7130262534373933  0.8814612821313585  0.9176014029224767  1.0000
  H   H115      1.0  0.21302625314226464  0.6185387179834191  0.41760140269183504  1.0000
  H   H116      1.0  0.7130262531467148  0.11853871794515981  0.41760140282803776  1.0000
  H   H117      1.0  0.7869737467176636  0.6185387179834191  0.08239859757435193  1.0000
  H   H118      1.0  0.2869737467132136  0.11853871794515981  0.08239859743814927  1.0000
  H   H119      1.0  0.7869737465686918  0.3814612820930994  0.5823985975681335  1.0000
  H   H120      1.0  0.2869737465642417  0.8814612821313585  0.5823985974319309  1.0000
  C   C1        1.0  0.4192328182507782  0.5762126378645639  0.9189525700819949  1.0000
  C   C2        1.0  0.9192328182552283  0.07621263782630472  0.9189525702181975  1.0000
  C   C3        1.0  0.41923281839975  0.42378736221195445  0.4189525700882133  1.0000
  C   C4        1.0  0.9192328184042  0.9237873609970012  0.4189525702244159  1.0000
  C   C5        1.0  0.5807671818991225  0.42378736221195445  0.08104742963718678  1.0000
  C   C6        1.0  0.0807671818953787  0.9237873609970012  0.08104743014242832  1.0000
  C   C7        1.0  0.5807671817501506  0.5762126378645639  0.5810474296309684  1.0000
  C   C8        1.0  0.0807671817457006  0.07621263782630472  0.5810474294947657  1.0000
  C   C9        1.0  0.39283719065195366  0.4655168756065372  0.9824033502025578  1.0000
  C   C10       1.0  0.8928371906564039  0.9655168756447965  0.9824033503387605  1.0000
  C   C11       1.0  0.39283719080092566  0.5344831244699813  0.48240335020877617  1.0000
  C   C12       1.0  0.8928371908053757  0.034483124431721995  0.48240335034497883  1.0000
  C   C13       1.0  0.6071628090582963  0.5344831244699813  0.017596649415966607  1.0000
  C   C14       1.0  0.10716280905384633  0.034483124431721995  0.017596649279763947  1.0000
  C   C15       1.0  0.607162809348975  0.4655168756065372  0.5175966495104055  1.0000
  C   C16       1.0  0.10716280934452502  0.9655168756447965  0.5175966493742029  1.0000
  C   C17       1.0  0.4196758583673941  0.6257814137291791  0.12268978910837731  1.0000
  C   C18       1.0  0.9196758583718443  0.12578141369091989  0.12268978924457997  1.0000
  C   C19       1.0  0.4196758586580728  0.3742185863473393  0.6226897892028163  1.0000
  C   C20       1.0  0.9196758586625228  0.8742185863855986  0.622689789339019  1.0000
  C   C21       1.0  0.580324141342856  0.3742185863473393  0.877310210510147  1.0000
  C   C22       1.0  0.08032414133911221  0.8742185863855986  0.8773102110153885  1.0000
  C   C23       1.0  0.5803241414925341  0.6257814137291791  0.37731021115780966  1.0000
  C   C24       1.0  0.08032414148808409  0.12578141369091989  0.37731021102160694  1.0000
  C   C25       1.0  0.3859718572838979  0.7051899739031757  0.18515544683670748  1.0000
  C   C26       1.0  0.8859718572883479  0.20518997386491653  0.18515544697291011  1.0000
  C   C27       1.0  0.3859718575745766  0.2948100261733427  0.6851554469311464  1.0000
  C   C28       1.0  0.8859718575790265  0.7948100262116018  0.6851554470673491  1.0000
  C   C29       1.0  0.6140281424263523  0.2948100261733427  0.8148445527818169  1.0000
  C   C30       1.0  0.11402814242260846  0.7948100262116018  0.8148445532870584  1.0000
  C   C31       1.0  0.6140281425753241  0.7051899739031757  0.3148445527880353  1.0000
  C   C32       1.0  0.11402814257158031  0.20518997386491653  0.3148445532932768  1.0000
  C   C33       1.0  0.405457027029106  0.7887492564354143  0.262191492392644  1.0000
  C   C34       1.0  0.9054570270328499  0.28874925639715504  0.2621914918874025  1.0000
  C   C35       1.0  0.4054570273197847  0.21125074364110416  0.762191492487083  1.0000
  C   C36       1.0  0.9054570273235284  0.7112507436793633  0.7621914919818414  1.0000
  C   C37       1.0  0.5945429726818503  0.21125074364110416  0.7378085078673245  1.0000
  C   C38       1.0  0.09454297267740026  0.7112507436793633  0.7378085077311219  1.0000
  C   C39       1.0  0.5945429728308221  0.7887492564354143  0.23780850787354293  1.0000
  C   C40       1.0  0.09454297282637213  0.28874925639715504  0.23780850773734027  1.0000
  C   C41       1.0  0.36242761847174737  0.8509637718235457  0.3081771353767135  1.0000
  C   C42       1.0  0.8624276184754911  0.3509637717852864  0.30817713487147197  1.0000
  C   C43       1.0  0.36242761876242596  0.14903622825297275  0.8081771354711524  1.0000
  C   C44       1.0  0.8624276187661698  0.649036228291232  0.8081771349659109  1.0000
  C   C45       1.0  0.6375723812392089  0.14903622825297275  0.6918228648832551  1.0000
  C   C46       1.0  0.13757238123475896  0.649036228291232  0.6918228647470525  1.0000
  C   C47       1.0  0.637572381388181  0.8509637718235457  0.19182286488947345  1.0000
  C   C48       1.0  0.13757238138373085  0.3509637717852864  0.19182286475327082  1.0000
  C   C49       1.0  0.3025041587814032  0.8291673581900845  0.27758295480920503  1.0000
  C   C50       1.0  0.8025041587858532  0.32916735815182524  0.2775829549454077  1.0000
  C   C51       1.0  0.3025041590720819  0.17083264188643396  0.7775829549036439  1.0000
  C   C52       1.0  0.8025041590765318  0.6708326419246932  0.7775829550398465  1.0000
  C   C53       1.0  0.697495840928847  0.17083264188643396  0.7224170448093193  1.0000
  C   C54       1.0  0.19749584092510314  0.6708326419246932  0.722417045314561  1.0000
  C   C55       1.0  0.6974958410778188  0.8291673581900845  0.22241704481553778  1.0000
  C   C56       1.0  0.19749584107407497  0.32916735815182524  0.22241704532077933  1.0000
  C   C57       1.0  0.2832455974675233  0.7440971024668271  0.19956381932361436  1.0000
  C   C58       1.0  0.7832455974712671  0.24409710242856789  0.19956381881837285  1.0000
  C   C59       1.0  0.28324559731784527  0.2559028976096913  0.6995638186759519  1.0000
  C   C60       1.0  0.7832455973222953  0.7559028976479505  0.6995638188121545  1.0000
  C   C61       1.0  0.7167544026830835  0.2559028976096913  0.8004361810370114  1.0000
  C   C62       1.0  0.21675440267863352  0.7559028976479505  0.8004361809008089  1.0000
  C   C63       1.0  0.7167544023924048  0.7440971024668271  0.30043618094257263  1.0000
  C   C64       1.0  0.21675440238795482  0.24409710242856789  0.3004361808063699  1.0000
  C   C65       1.0  0.3259107702114518  0.6828464578409845  0.15423228433976216  1.0000
  C   C66       1.0  0.8259107702159018  0.18284645780272532  0.15423228447596482  1.0000
  C   C67       1.0  0.3259107705021305  0.3171535422355339  0.6542322844342011  1.0000
  C   C68       1.0  0.8259107705065805  0.8171535422737931  0.6542322845704037  1.0000
  C   C69       1.0  0.6740892294987982  0.3171535422355339  0.8457677152787623  1.0000
  C   C70       1.0  0.17408922949434824  0.8171535422737931  0.8457677151425596  1.0000
  C   C71       1.0  0.6740892296477702  0.6828464578409845  0.34576771528498057  1.0000
  C   C72       1.0  0.17408922964332013  0.18284645780272532  0.34576771514877797  1.0000
  C   C73       1.0  0.3208466439388069  0.5883882785985597  0.07164136162097896  1.0000
  C   C74       1.0  0.8208466439432569  0.0883882785603005  0.07164136175718161  1.0000
  C   C75       1.0  0.320846643789835  0.4116117214779587  0.5716413616147605  1.0000
  C   C76       1.0  0.8208466437942852  0.9116117215162178  0.5716413617509633  1.0000
  C   C77       1.0  0.6791533562110937  0.4116117214779587  0.9283586380982027  1.0000
  C   C78       1.0  0.17915335620734993  0.9116117215162178  0.9283586386034443  1.0000
  C   C79       1.0  0.679153355920415  0.5883882785985597  0.4283586380037638  1.0000
  C   C80       1.0  0.17915335591667125  0.0883882785603005  0.4283586385090053  1.0000
  C   C81       1.0  0.13477835530943852  0.48153182292333774  0.9600046479667743  1.0000
  C   C82       1.0  0.6347783553138886  0.9815318217083844  0.960004648102977  1.0000
  C   C83       1.0  0.1347783554584104  0.5184681771531807  0.46000464797299273  1.0000
  C   C84       1.0  0.6347783554628604  0.018468177114921495  0.46000464810919534  1.0000
  C   C85       1.0  0.865221644840462  0.5184681771531807  0.03999535175240735  1.0000
  C   C86       1.0  0.3652216448367183  0.018468177114921495  0.03999535225764888  1.0000
  C   C87       1.0  0.8652216446914903  0.48153182292333774  0.539995351746189  1.0000
  C   C88       1.0  0.3652216446877465  0.9815318217083844  0.5399953522514305  1.0000
  C   C89       1.0  0.0731635462430431  0.4872135448076064  0.945706227124363  1.0000
  C   C90       1.0  0.5731635462467869  0.9872135448458655  0.9457062266191216  1.0000
  C   C91       1.0  0.07316354639201497  0.512786455268912  0.44570622713058144  1.0000
  C   C92       1.0  0.5731635463957587  0.012786455230652766  0.4457062266253399  1.0000
  C   C93       1.0  0.9268364534679132  0.512786455268912  0.05429377313560552  1.0000
  C   C94       1.0  0.42683645346346316  0.012786455230652766  0.05429377299940285  1.0000
  C   C95       1.0  0.9268364537585919  0.4872135448076064  0.5542937732300445  1.0000
  C   C96       1.0  0.42683645375414186  0.9872135448458655  0.5542937730938419  1.0000
  C   C97       1.0  0.0425557291754811  0.3964320089311505  0.8763696978863177  1.0000
  C   C98       1.0  0.5425557291799312  0.8964320089694097  0.8763696980225203  1.0000
  C   C99       1.0  0.04255572932445297  0.603567991145368  0.37636969789253605  1.0000
  C   C100      1.0  0.5425557293289031  0.10356799110710872  0.37636969802873865  1.0000
  C   C101      1.0  0.9574442705354753  0.603567991145368  0.1236303023736509  1.0000
  C   C102      1.0  0.4574442705310252  0.10356799110710872  0.12363030223744824  1.0000
  C   C103      1.0  0.9574442708261538  0.3964320089311505  0.6236303024680898  1.0000
  C   C104      1.0  0.4574442708217039  0.8964320089694097  0.6236303023318872  1.0000
  C   C105      1.0  0.07220323327206621  0.30073999315290145  0.8220957803745695  1.0000
  C   C106      1.0  0.57220323327581  0.8007399931911606  0.822095779869328  1.0000
  C   C107      1.0  0.07220323298138755  0.6992600069236169  0.3220957802801306  1.0000
  C   C108      1.0  0.5722032329851313  0.19926000688535772  0.32209577977488907  1.0000
  C   C109      1.0  0.9277967668785407  0.6992600069236169  0.1779042199860563  1.0000
  C   C110      1.0  0.42779676687409063  0.19926000688535772  0.17790421984985363  1.0000
  C   C111      1.0  0.9277967667295688  0.30073999315290145  0.6779042199798379  1.0000
  C   C112      1.0  0.4277967667251188  0.8007399931911606  0.6779042198436352  1.0000
  C   C113      1.0  0.13398727769395413  0.2954030024439355  0.837911480609402  1.0000
  C   C114      1.0  0.6339872776984042  0.7954030024821948  0.8379114807456046  1.0000
  C   C115      1.0  0.13398727740398167  0.7045969976325828  0.33791148115640723  1.0000
  C   C116      1.0  0.6339872774077254  0.20459699759432365  0.3379114806511658  1.0000
  C   C117      1.0  0.8660127224559466  0.7045969976325828  0.16208851910977964  1.0000
  C   C118      1.0  0.36601272245149646  0.20459699759432365  0.16208851897357698  1.0000
  C   C119      1.0  0.8660127223069747  0.2954030024439355  0.6620885191035614  1.0000
  C   C120      1.0  0.36601272230252463  0.7954030024821948  0.6620885189673587  1.0000
  C   C121      1.0  0.16524496498248423  0.38455056107384245  0.9073847277057638  1.0000
  C   C122      1.0  0.6652449649869343  0.8845505611121016  0.9073847278419667  1.0000
  C   C123      1.0  0.16524496513145612  0.615449439002676  0.40738472771198236  1.0000
  C   C124      1.0  0.6652449651359061  0.11544943896441677  0.407384727848185  1.0000
  C   C125      1.0  0.8347550351674164  0.615449439002676  0.09261527201341775  1.0000
  C   C126      1.0  0.3347550351636726  0.11544943896441677  0.09261527251865925  1.0000
  C   C127      1.0  0.8347550350184446  0.38455056107384245  0.5926152720071994  1.0000
  C   C128      1.0  0.3347550350139945  0.8845505611121016  0.5926152718709966  1.0000
  N   N1        1.0  0.37755300433451866  0.5591084734758686  0.0557932095947069  1.0000
  N   N2        1.0  0.8775530043382624  0.05910847343760942  0.05579320908946538  1.0000
  N   N3        1.0  0.3775530041848406  0.4408915266006498  0.5557932089470443  1.0000
  N   N4        1.0  0.8775530041892907  0.940891526638909  0.555793209083247  1.0000
  N   N5        1.0  0.6224469958160882  0.4408915266006498  0.9442067907659191  1.0000
  N   N6        1.0  0.12244699581163819  0.940891526638909  0.9442067906297162  1.0000
  N   N7        1.0  0.62244699596506  0.5591084734758686  0.4442067907721373  1.0000
  N   N8        1.0  0.12244699596061005  0.05910847343760942  0.4442067906359347  1.0000
  O   O1        1.0  0.3780614189355924  0.693004464121108  0.8743072669406666  1.0000
  O   O2        1.0  0.8780614189400424  0.19300446408284888  0.8743072670768691  1.0000
  O   O3        1.0  0.37806141908456437  0.3069955359554103  0.3743072669468849  1.0000
  O   O4        1.0  0.8780614190890144  0.8069955359936695  0.37430726708308754  1.0000
  O   O5        1.0  0.6219385812150144  0.3069955359554103  0.12569273341995937  1.0000
  O   O6        1.0  0.1219385812105644  0.8069955359936695  0.12569273328375669  1.0000
  O   O7        1.0  0.6219385810660426  0.693004464121108  0.6256927334137409  1.0000
  O   O8        1.0  0.12193858106159254  0.19300446408284888  0.6256927332775384  1.0000
  O   O9        1.0  0.4728675008349451  0.6146723808612032  0.12446958693499495  1.0000
  O   O10       1.0  0.9728675008393951  0.11467238082294406  0.1244695870711976  1.0000
  O   O11       1.0  0.4728675006859733  0.38532761921531516  0.6244695869287765  1.0000
  O   O12       1.0  0.9728675006904234  0.8853276192535743  0.6244695870649792  1.0000
  O   O13       1.0  0.5271324993156618  0.38532761921531516  0.875530413425631  1.0000
  O   O14       1.0  0.027132499311211682  0.8853276192535743  0.8755304132894283  1.0000
  O   O15       1.0  0.527132499024983  0.6146723808612032  0.37553041333119197  1.0000
  O   O16       1.0  0.02713249902053301  0.11467238082294406  0.3755304131949893  1.0000
  O   O17       1.0  0.2763562930117873  0.5394914338955372  0.022891285112067904  1.0000
  O   O18       1.0  0.7763562930162373  0.03949143385727797  0.022891285248270582  1.0000
  O   O19       1.0  0.27635629330246597  0.46050856618098124  0.5228912852065069  1.0000
  O   O20       1.0  0.776356293306916  0.9605085662192404  0.5228912853427095  1.0000
  O   O21       1.0  0.7236437066984628  0.46050856618098124  0.9771087145064564  1.0000
  O   O22       1.0  0.2236437066940128  0.9605085662192404  0.9771087143702538  1.0000
  O   O23       1.0  0.7236437068474347  0.5394914338955372  0.47710871451267484  1.0000
  O   O24       1.0  0.22364370684298462  0.03949143385727797  0.4771087143764722  1.0000
  O   O25       1.0  0.16468088020398478  0.5768571900936834  0.02590905250137927  1.0000
  O   O26       1.0  0.6646808802084349  0.07685719005542424  0.025909052637581937  1.0000
  O   O27       1.0  0.16468088049466345  0.42314280998283493  0.5259090525958182  1.0000
  O   O28       1.0  0.6646808804991134  0.9231428100210941  0.5259090527320209  1.0000
  O   O29       1.0  0.8353191195062654  0.42314280998283493  0.9740909471171452  1.0000
  O   O30       1.0  0.3353191195018153  0.9231428100210941  0.9740909469809425  1.0000
  O   O31       1.0  0.8353191196552371  0.5768571900936834  0.47409094712336347  1.0000
  O   O32       1.0  0.33531911965078715  0.07685719005542424  0.4740909469871608  1.0000
  O   O33       1.0  0.1659867171205891  0.20365660827377732  0.7888023649873629  1.0000
  O   O34       1.0  0.6659867171250392  0.7036566083120365  0.7888023651235657  1.0000
  O   O35       1.0  0.16598671726956093  0.796343391802741  0.2888023649935813  1.0000
  O   O36       1.0  0.665986717274011  0.2963433917644819  0.28880236512978397  1.0000
  O   O37       1.0  0.834013282589661  0.796343391802741  0.21119763463116142  1.0000
  O   O38       1.0  0.3340132825859172  0.2963433917644819  0.21119763513640297  1.0000
  O   O39       1.0  0.8340132828803397  0.20365660827377732  0.7111976347256005  1.0000
  O   O40       1.0  0.3340132828765959  0.7036566083120365  0.7111976352308419  1.0000
