data_image0
_chemical_formula_structural       H92C96N16O12S8Br4
_chemical_formula_sum              "H92 C96 N16 O12 S8 Br4"
_cell_length_a       11.576252588772238
_cell_length_b       9.066199897106292
_cell_length_c       22.196049375548686
_cell_angle_alpha    90.0
_cell_angle_beta     93.18784002284994
_cell_angle_gamma    90.0

_space_group_name_H-M_alt    "P 1"
_space_group_IT_number       1

loop_
  _space_group_symop_operation_xyz
  'x, y, z'

loop_
  _atom_site_type_symbol
  _atom_site_label
  _atom_site_symmetry_multiplicity
  _atom_site_fract_x
  _atom_site_fract_y
  _atom_site_fract_z
  _atom_site_occupancy
  H   H1        1.0  0.7968859553140646  0.5383717230366706  0.904644731830384  1.0000
  H   H2        1.0  0.29688595541402696  0.9616282774420924  0.40464473164491704  1.0000
  H   H3        1.0  0.2031140444413187  0.4616282772825048  0.09535526808932479  1.0000
  H   H4        1.0  0.7031140443413564  0.03837172287708289  0.5953552682747918  1.0000
  H   H5        1.0  0.35573499848902745  0.8685184619096298  0.9431766675218815  1.0000
  H   H6        1.0  0.8557349983136799  0.6314815385691334  0.44317666765239533  1.0000
  H   H7        1.0  0.644265001266356  0.13148153840954568  0.05682333239782739  1.0000
  H   H8        1.0  0.1442650014417035  0.36851846175004205  0.5568233322673135  1.0000
  H   H9        1.0  0.4498222055641038  0.7936071244465355  0.8524352504126131  1.0000
  H   H10       1.0  0.9498222053440641  0.7063928760322277  0.3524352500919017  1.0000
  H   H11       1.0  0.5501777942359717  0.20639287587263996  0.14756474995832103  1.0000
  H   H12       1.0  0.05017779441131926  0.2936071242869478  0.6475647498278071  1.0000
  H   H13       1.0  0.39317534211017313  0.9091377218178014  0.7525230376653387  1.0000
  H   H14       1.0  0.8931753419348255  0.5908622786609616  0.2525230377958526  1.0000
  H   H15       1.0  0.6068246576452102  0.09086227850137397  0.2474769622543701  1.0000
  H   H16       1.0  0.1068246578652499  0.4091377216582137  0.7474769625750816  1.0000
  H   H17       1.0  0.24905172765510078  0.1155440616673752  0.7480808785677832  1.0000
  H   H18       1.0  0.7490517274350611  0.3844559384922125  0.2480808782470717  1.0000
  H   H19       1.0  0.7509482730089958  0.8844559375488023  0.25191912180493725  1.0000
  H   H20       1.0  0.2509482723203223  0.6155440618269629  0.7519191216726372  1.0000
  H   H21       1.0  0.6431927303641195  0.6551657218473484  0.9335017879370221  1.0000
  H   H22       1.0  0.14319273050877387  0.8448342775284168  0.43350178820278024  1.0000
  H   H23       1.0  0.35680726939126384  0.344834277368829  0.06649821198268686  1.0000
  H   H24       1.0  0.8568072692913017  0.15516572168776074  0.566498212168154  1.0000
  H   H25       1.0  0.5089008650212767  0.7267356880254715  0.011578041408184431  1.0000
  H   H26       1.0  0.008900864332603139  0.7732643124532916  0.5115780412758842  1.0000
  H   H27       1.0  0.49109913559812785  0.2732643122937039  0.9884219585133108  1.0000
  H   H28       1.0  0.9910991354227803  0.2267356878658838  0.4884219586438246  1.0000
  H   H29       1.0  0.7052674889686138  0.46189256993292  0.1418668187239098  1.0000
  H   H30       1.0  0.20526748827994032  0.03810743022666771  0.6418668185916097  1.0000
  H   H31       1.0  0.2947325116507907  0.5381074303862554  0.8581331811975854  1.0000
  H   H32       1.0  0.7947325114754431  0.9618925700925077  0.3581331813280992  1.0000
  H   H33       1.0  0.83829671767087  0.3873602942640728  0.0633200194802743  1.0000
  H   H34       1.0  0.33829671784621745  0.11263970479251692  0.5633200193497604  1.0000
  H   H35       1.0  0.16170328212920554  0.6126397049521046  0.9366799808906597  1.0000
  H   H36       1.0  0.6617032819091658  0.8873602944236605  0.43667998056994833  1.0000
  H   H37       1.0  0.9085910547620428  0.12493719009676056  0.1869315002509626  1.0000
  H   H38       1.0  0.4085910549820825  0.37506281006282716  0.6869315005716741  1.0000
  H   H39       1.0  0.09140894499334055  0.8750628091194169  0.8130684996687462  1.0000
  H   H40       1.0  0.591408944817993  0.6249371902563483  0.3130684997992601  1.0000
  H   H41       1.0  0.89935237501416  0.3216389703618524  0.17850843636577987  1.0000
  H   H42       1.0  0.39935237518950745  0.17836102869473733  0.678508436235266  1.0000
  H   H43       1.0  0.10064762474122345  0.678361028854325  0.8214915635539288  1.0000
  H   H44       1.0  0.600647625429897  0.8216389705214402  0.3214915636862291  1.0000
  H   H45       1.0  0.03404805410153945  0.23644914565409206  0.20347828004556215  1.0000
  H   H46       1.0  0.5340480540015773  0.26355085450549565  0.7034782802310292  1.0000
  H   H47       1.0  0.965951945653844  0.7635508546650834  0.7965217198741468  1.0000
  H   H48       1.0  0.4659519457984983  0.7364491458136798  0.29652172013990497  1.0000
  H   H49       1.0  0.25752755792602217  0.8405986638825874  0.008696711983936945  1.0000
  H   H50       1.0  0.75752755782606  0.6594013354931778  0.508696712169404  1.0000
  H   H51       1.0  0.7424724418293612  0.1594013353335901  0.9913032879357718  1.0000
  H   H52       1.0  0.24247244192932346  0.34059866372299963  0.49130328775030485  1.0000
  H   H53       1.0  0.20113176745362424  0.8929518973637393  0.07751397119674695  1.0000
  H   H54       1.0  0.7011317673536621  0.607048103115024  0.577513971382214  1.0000
  H   H55       1.0  0.7988682323017592  0.10704810295543626  0.9224860287229619  1.0000
  H   H56       1.0  0.2988682324017214  0.39295189720415147  0.42248602853749484  1.0000
  H   H57       1.0  0.4104707793333464  0.04375978960342889  0.023805162583896908  1.0000
  H   H58       1.0  0.910470779188692  0.45624020945316085  0.5238051623181387  1.0000
  H   H59       1.0  0.5895292213307501  0.9562402096127486  0.9761948377888234  1.0000
  H   H60       1.0  0.0895292214307124  0.5437597897630166  0.47619483760335646  1.0000
  H   H61       1.0  0.4182040503918263  0.9160515049586305  0.08481300373185882  1.0000
  H   H62       1.0  0.9182040502918641  0.5839484955201325  0.5848130039173259  1.0000
  H   H63       1.0  0.5817959493635572  0.08394849536054488  0.9151869961878499  1.0000
  H   H64       1.0  0.08179594946351938  0.41605150479904285  0.41518699600238296  1.0000
  H   H65       1.0  0.3498895108988333  0.09007898339641313  0.09313142494353789  1.0000
  H   H66       1.0  0.8498895116628922  0.4099210167631746  0.5931314251307913  1.0000
  H   H67       1.0  0.6501104888565502  0.9099210169227623  0.9068685749761709  1.0000
  H   H68       1.0  0.15011048895651236  0.5900789835560009  0.4068685747907038  1.0000
  H   H69       1.0  0.10437594087237807  0.44838550287177065  0.2644333853924897  1.0000
  H   H70       1.0  0.6043759407277237  0.05161449728781706  0.7644333851267314  1.0000
  H   H71       1.0  0.8956240597470265  0.5516144974474048  0.7355666145290055  1.0000
  H   H72       1.0  0.3956240590276596  0.9483855030313584  0.23556661479297747  1.0000
  H   H73       1.0  0.22989656072123907  0.4522551285581839  0.31663149734930707  1.0000
  H   H74       1.0  0.7298965606212767  0.047744871601403775  0.8166314975347742  1.0000
  H   H75       1.0  0.7701034398981653  0.5477448717609915  0.683368502572188  1.0000
  H   H76       1.0  0.2701034400428198  0.9522551276147737  0.18336850283794623  1.0000
  H   H77       1.0  0.1881412130034306  0.2824167423020566  0.2781660327749288  1.0000
  H   H78       1.0  0.6881412129034683  0.2175832567545331  0.778166032960396  1.0000
  H   H79       1.0  0.8118587867519527  0.7175832569141208  0.7218339671447801  1.0000
  H   H80       1.0  0.3118587868519151  0.7824167424616443  0.22183396695931298  1.0000
  H   H81       1.0  0.38641391471061937  0.23865685563480715  0.24442175393286772  1.0000
  H   H82       1.0  0.8864139146106571  0.2613431445247805  0.7444217541183348  1.0000
  H   H83       1.0  0.6135860850447641  0.7613431446843683  0.7555782459868412  1.0000
  H   H84       1.0  0.11358608518941841  0.738656854691397  0.2555782462525994  1.0000
  H   H85       1.0  0.4372159742413699  0.4011213464596924  0.28547941194517623  1.0000
  H   H86       1.0  0.9372159740967155  0.09887865369989536  0.785479411679418  1.0000
  H   H87       1.0  0.5627840255587057  0.5988786538594831  0.7145205884257578  1.0000
  H   H88       1.0  0.06278402565866789  0.9011213466192801  0.21452058824029083  1.0000
  H   H89       1.0  0.473114233212076  0.37523686865605355  0.20846796162429554  1.0000
  H   H90       1.0  0.9731142330674216  0.12476313150353413  0.7084679613585373  1.0000
  H   H91       1.0  0.5268857665433073  0.6247631316631219  0.7915320382954133  1.0000
  H   H92       1.0  0.026885766687961738  0.8752368688156412  0.29153203856117155  1.0000
  C   C1        1.0  0.9123608748420158  0.3935830381523922  0.9452573392870841  1.0000
  C   C2        1.0  0.4123608749419781  0.1064169620071955  0.4452573391016169  1.0000
  C   C3        1.0  0.08763912491336756  0.6064169621667832  0.05474266063262484  1.0000
  C   C4        1.0  0.5876391248134053  0.8935830383119799  0.554742660818092  1.0000
  C   C5        1.0  0.03885002240276932  0.22350774227322806  0.9899459112875858  1.0000
  C   C6        1.0  0.5388500221827296  0.27649225788635967  0.48994591096687434  1.0000
  C   C7        1.0  0.9611499773973062  0.7764922580459473  0.010054089083348327  1.0000
  C   C8        1.0  0.46114997757265375  0.7235077424328158  0.5100540889528344  1.0000
  C   C9        1.0  0.08973815573407974  0.1308663170308752  0.03486191316032163  1.0000
  C   C10       1.0  0.5897381564534464  0.36913368312871253  0.5348619128963497  1.0000
  C   C11       1.0  0.9102618440213036  0.8691336832883002  0.9651380867593871  1.0000
  C   C12       1.0  0.41026184416595796  0.6308663171904628  0.4651380870251454  1.0000
  C   C13       1.0  0.1787668313020785  0.08172208404940198  0.9482106737175073  1.0000
  C   C14       1.0  0.6787668311267309  0.4182779161101857  0.4482106738480212  1.0000
  C   C15       1.0  0.821233168453305  0.9182779162697734  0.05178932620220148  1.0000
  C   C16       1.0  0.3212331686286525  0.5817220842089897  0.5517893260716876  1.0000
  C   C17       1.0  0.24499081882685425  0.03372942616206853  0.8990212961086099  1.0000
  C   C18       1.0  0.7449908195155278  0.4662705739975192  0.39902129624091015  1.0000
  C   C19       1.0  0.7550091809285292  0.9662705741571068  0.10097870381109879  1.0000
  C   C20       1.0  0.2550091811038767  0.5337294263216562  0.6009787036805849  1.0000
  C   C21       1.0  0.3311737589002683  0.9232368969353498  0.9008181157462588  1.0000
  C   C22       1.0  0.8311737587249207  0.5767631024404154  0.4008181158767727  1.0000
  C   C23       1.0  0.6688262408551151  0.07676310228082771  0.09918188417344997  1.0000
  C   C24       1.0  0.16882624107515473  0.42323689677576204  0.5991818844941614  1.0000
  C   C25       1.0  0.3846460977611557  0.880534686042827  0.8492554937958504  1.0000
  C   C26       1.0  0.884646097585808  0.619465314435936  0.3492554939263642  1.0000
  C   C27       1.0  0.6153539019942277  0.11946531427634832  0.15074450612385845  1.0000
  C   C28       1.0  0.11535390216957528  0.3805346858832394  0.6507445059933445  1.0000
  C   C29       1.0  0.3550222784697431  0.9481029326017324  0.7934909446104905  1.0000
  C   C30       1.0  0.8550222791584167  0.5518970678770307  0.29349094474279064  1.0000
  C   C31       1.0  0.6449777212856403  0.051897067717443006  0.2065090553092183  1.0000
  C   C32       1.0  0.14497772146098786  0.4481029324421447  0.7065090551787044  1.0000
  C   C33       1.0  0.2736095638416879  0.06013373146272779  0.7905060127835661  1.0000
  C   C34       1.0  0.7736095645303614  0.439866267593862  0.2905060129158663  1.0000
  C   C35       1.0  0.7263904359136955  0.9398662677534496  0.20949398713614262  1.0000
  C   C36       1.0  0.22639043613373513  0.5601337316223155  0.7094939874568541  1.0000
  C   C37       1.0  0.216388906224393  0.10620137333474367  0.8418956892535482  1.0000
  C   C38       1.0  0.7163889068683744  0.393798626824844  0.341895688934623  1.0000
  C   C39       1.0  0.7836110935756825  0.8937986258814338  0.15810431111738596  1.0000
  C   C40       1.0  0.2836110937510301  0.6062013734943313  0.6581043109868722  1.0000
  C   C41       1.0  0.07594071922375603  0.2539561344477828  0.8793366546629582  1.0000
  C   C42       1.0  0.5759407190484085  0.2460438657118049  0.379336654793472  1.0000
  C   C43       1.0  0.9240592805316273  0.7460438658713926  0.12066334525675067  1.0000
  C   C44       1.0  0.424059280751667  0.7539561346073705  0.6206633455774621  1.0000
  C   C45       1.0  0.09553011862030848  0.1922434834639259  0.9366512316444725  1.0000
  C   C46       1.0  0.595530118444961  0.30775651669566184  0.4366512317749863  1.0000
  C   C47       1.0  0.9044698811350749  0.8077565168552495  0.06334876827523632  1.0000
  C   C48       1.0  0.4044698813551145  0.6922434836235136  0.5633487685959477  1.0000
  C   C49       1.0  0.7495117685746252  0.5165596504765765  0.9929357745187106  1.0000
  C   C50       1.0  0.24951176867458746  0.9834403500021865  0.4929357743332435  1.0000
  C   C51       1.0  0.25048823204477927  0.48344034984259887  0.007064225402784541  1.0000
  C   C52       1.0  0.750488231944817  0.016559650316988795  0.5070642255882516  1.0000
  C   C53       1.0  0.6561831945548576  0.6128257796051175  0.9792942239472844  1.0000
  C   C54       1.0  0.156183194699512  0.8871742197706476  0.47929422421304274  1.0000
  C   C55       1.0  0.3438168052005257  0.3871742207140578  0.02070577597242436  1.0000
  C   C56       1.0  0.8438168051005637  0.11282577944552986  0.5207057761578914  1.0000
  C   C57       1.0  0.5814090060772119  0.6537402172096087  0.0230826139795431  1.0000
  C   C58       1.0  0.08140900625255952  0.8462597832691543  0.5230826138490292  1.0000
  C   C59       1.0  0.4185909936781715  0.3462597831095666  0.9769173859401659  1.0000
  C   C60       1.0  0.9185909935028238  0.15374021705002108  0.4769173860706796  1.0000
  C   C61       1.0  0.6000445751277522  0.5988182316311826  0.08151141123334373  1.0000
  C   C62       1.0  0.1000445753030998  0.9011817688475804  0.5815114111028299  1.0000
  C   C63       1.0  0.3999554246276311  0.4011817686879927  0.9184885886863651  1.0000
  C   C64       1.0  0.8999554253163048  0.09881823147159496  0.4184885888186652  1.0000
  C   C65       1.0  0.6913332099965093  0.5031763287566652  0.09598924844880823  1.0000
  C   C66       1.0  0.19133321017185692  0.9968236706190999  0.5959892483182944  1.0000
  C   C67       1.0  0.30866679062289515  0.49682367045951226  0.9040107514726868  1.0000
  C   C68       1.0  0.8086667904475476  0.0031763297000754827  0.40401075160320077  1.0000
  C   C69       1.0  0.7662314962772349  0.4609466355726224  0.051999246465609876  1.0000
  C   C70       1.0  0.26623149645258243  0.03905336458696537  0.551999246335096  1.0000
  C   C71       1.0  0.23376850347814854  0.5390533647465531  0.948000753454099  1.0000
  C   C72       1.0  0.733768504166822  0.9609466357322101  0.4480007535863991  1.0000
  C   C73       1.0  0.06442242256736538  0.12133007902804943  0.0980784194001757  1.0000
  C   C74       1.0  0.5644224224227111  0.3786699200285403  0.5980784191344174  1.0000
  C   C75       1.0  0.9355775780520392  0.8786699201881281  0.9019215805213195  1.0000
  C   C76       1.0  0.43557757819669346  0.6213300791876372  0.4019215807870776  1.0000
  C   C77       1.0  0.9549090139456414  0.22492049735753725  0.1744835624449019  1.0000
  C   C78       1.0  0.454909014120989  0.2750795028020505  0.674483562314388  1.0000
  C   C79       1.0  0.04509098580974195  0.7750795029616382  0.825516437474807  1.0000
  C   C80       1.0  0.5450909856343944  0.724920497517125  0.3255164376053208  1.0000
  C   C81       1.0  0.2479814443565079  0.9336931124474583  0.03946319323407657  1.0000
  C   C82       1.0  0.7479814442565456  0.5663068880313048  0.5394631934195436  1.0000
  C   C83       1.0  0.7520185562628965  0.0663068878717171  0.9605368066874186  1.0000
  C   C84       1.0  0.2520185563628588  0.4336931122878706  0.4605368065019515  1.0000
  C   C85       1.0  0.3636096211975517  0.9995063535817558  0.061479201865713005  1.0000
  C   C86       1.0  0.8636096210975893  0.5004936457940093  0.5614792020511802  1.0000
  C   C87       1.0  0.6363903785578318  0.0004936456344215912  0.9385207980539958  1.0000
  C   C88       1.0  0.13639037870248608  0.49950635452516606  0.4385207983197541  1.0000
  C   C89       1.0  0.19089972297990782  0.40325426876666376  0.2751512048798284  1.0000
  C   C90       1.0  0.6908997228799456  0.09674573139292394  0.7751512050652953  1.0000
  C   C91       1.0  0.8091002776394967  0.5967457315525116  0.7248487950416668  1.0000
  C   C92       1.0  0.30910027773945886  0.9032542689262516  0.22484879485619963  1.0000
  C   C93       1.0  0.40797200428723696  0.3560709378391674  0.24144727826241144  1.0000
  C   C94       1.0  0.9079720050512959  0.14392906232042035  0.7414472784496648  1.0000
  C   C95       1.0  0.5920279954681464  0.643929062480008  0.7585527216572975  1.0000
  C   C96       1.0  0.09202799556810867  0.8560709379987551  0.25855272147183034  1.0000
  N   N1        1.0  0.819274414164742  0.48416902448853394  0.9452609779836074  1.0000
  N   N2        1.0  0.3192744143093964  0.01583097567105378  0.44526097824936567  1.0000
  N   N3        1.0  0.1807255855906414  0.5158309758306414  0.05473902193610141  1.0000
  N   N4        1.0  0.680725585445987  0.9841690246481216  0.5547390216703432  1.0000
  N   N5        1.0  0.9501151237666652  0.32145364243845903  0.9929012578377466  1.0000
  N   N6        1.0  0.45011512386662744  0.17854635772112867  0.4929012576522796  1.0000
  N   N7        1.0  0.049884875988718214  0.6785463578807164  0.0070987420819621574  1.0000
  N   N8        1.0  0.5498848758887559  0.8214536425980468  0.5070987422674292  1.0000
  N   N9        1.0  0.17397497309167387  0.0430926633467124  0.0077758832927030674  1.0000
  N   N10       1.0  0.6739749729470195  0.45690733681287526  0.5077758830269449  1.0000
  N   N11       1.0  0.8260250275724227  0.9569073369724629  0.9922241170800175  1.0000
  N   N12       1.0  0.32602502767238495  0.5430926624033022  0.49222411689455026  1.0000
  N   N13       1.0  0.13356403814818643  0.21520361255466433  0.8325837870793483  1.0000
  N   N14       1.0  0.6335640379281469  0.2847963865019254  0.332583786758637  1.0000
  N   N15       1.0  0.8664359616071969  0.7847963866615131  0.1674162128403604  1.0000
  N   N16       1.0  0.3664359618272366  0.715203612714252  0.6674162131610718  1.0000
  O   O1        1.0  0.10945192867264857  0.03592377994047461  0.13596928283535906  1.0000
  O   O2        1.0  0.6094519285726864  0.46407622021911304  0.6359692830208261  1.0000
  O   O3        1.0  0.8905480710827348  0.9640762203787007  0.8640307170843498  1.0000
  O   O4        1.0  0.390548071182697  0.5359237801000624  0.3640307168988826  1.0000
  O   O5        1.0  0.9824054598024734  0.22078436640679913  0.11205887903556075  1.0000
  O   O6        1.0  0.48240545997782097  0.2792156337527886  0.612058878905047  1.0000
  O   O7        1.0  0.017594539997602094  0.7792156339123762  0.8879411213353733  1.0000
  O   O8        1.0  0.5175945397775624  0.7207843665663868  0.38794112101466194  1.0000
  O   O9        1.0  0.23409951343579025  0.36759894529390685  0.1593975656160952  1.0000
  O   O10       1.0  0.734099513335828  0.13240105486568082  0.6593975658015623  1.0000
  O   O11       1.0  0.7659004863195932  0.6324010550252684  0.8406024343036137  1.0000
  O   O12       1.0  0.2659004864195554  0.8675989454534946  0.34060243411814656  1.0000
  S   S1        1.0  0.9676438664783908  0.38958251307996616  0.8702355069768427  1.0000
  S   S2        1.0  0.4676438665783531  0.11041748707962154  0.37023550679137557  1.0000
  S   S3        1.0  0.03235613327699251  0.6104174872392093  0.12976449294286616  1.0000
  S   S4        1.0  0.5323561331770302  0.8895825132395538  0.6297644931283333  1.0000
  S   S5        1.0  0.28050420847123897  0.45289721786418496  0.21465599303208333  1.0000
  S   S6        1.0  0.7805042083712768  0.0471027822954027  0.7146559932175505  1.0000
  S   S7        1.0  0.7194957912841444  0.5471027824549904  0.7853440068876255  1.0000
  S   S8        1.0  0.21949579142879877  0.9528972180237727  0.2853440071533837  1.0000
  Br  Br1       1.0  0.49803889496260156  0.6547461579679756  0.14210524118141815  1.0000
  Br  Br2       1.0  0.9980388948179472  0.8452538414077896  0.6421052409156599  1.0000
  Br  Br3       1.0  0.5019611047927818  0.3452538423511998  0.8578947587382906  1.0000
  Br  Br4       1.0  0.0019611049374361846  0.15474615780838785  0.35789475900404893  1.0000
