data_image0
_chemical_formula_structural       H64C72N16O16Br8
_chemical_formula_sum              "H64 C72 N16 O16 Br8"
_cell_length_a       23.437406578021932
_cell_length_b       4.799384032369741
_cell_length_c       18.30273972981444
_cell_angle_alpha    90.0
_cell_angle_beta     111.62148997857165
_cell_angle_gamma    90.0

_space_group_name_H-M_alt    "P 1"
_space_group_IT_number       1

loop_
  _space_group_symop_operation_xyz
  'x, y, z'

loop_
  _atom_site_type_symbol
  _atom_site_label
  _atom_site_symmetry_multiplicity
  _atom_site_fract_x
  _atom_site_fract_y
  _atom_site_fract_z
  _atom_site_occupancy
  H   H1        1.0  0.21706586959968444  0.6533526654360525  0.16468378345339504  1.0000
  H   H2        1.0  0.7829341302697248  0.15335266464113187  0.33531621658218663  1.0000
  H   H3        1.0  0.7829341306565218  0.3466473361537888  0.835316216783412  1.0000
  H   H4        1.0  0.2170658695581973  0.8466473348651088  0.6646837836489357  1.0000
  H   H5        1.0  0.211051326083529  0.918607958909914  0.2291466433555062  1.0000
  H   H6        1.0  0.7889486737858804  0.4186079601985939  0.2708533566800755  1.0000
  H   H7        1.0  0.788948673744393  0.08139204059632668  0.7708533568756161  1.0000
  H   H8        1.0  0.21105132604204183  0.5813920413912473  0.7291466435510466  1.0000
  H   H9        1.0  0.3080219903409416  0.7763006179274986  0.3259162151320883  1.0000
  H   H10       1.0  0.6919780099567518  0.2763006171325779  0.1740837849091782  1.0000
  H   H11       1.0  0.6919780099152648  0.22369938157874195  0.6740837851047187  1.0000
  H   H12       1.0  0.3080219901344743  0.7236993823736626  0.8259162147399371  1.0000
  H   H13       1.0  0.3080833587565313  0.4884721297958829  0.266324366229809  1.0000
  H   H14       1.0  0.6919166415411622  0.9884721285072029  0.23367563381145753  1.0000
  H   H15       1.0  0.691916641499675  0.5115278717939584  0.7336756340069981  1.0000
  H   H16       1.0  0.30808335871504416  0.011527870999037753  0.7663243664253495  1.0000
  H   H17       1.0  0.18404943695015621  0.6337370961536094  0.02142707458874903  1.0000
  H   H18       1.0  0.815950562919253  0.13373709535868872  0.47857292544683266  1.0000
  H   H19       1.0  0.81595056314107  0.36626290543623197  0.9785729250603663  1.0000
  H   H20       1.0  0.1840494369086691  0.8662629041475518  0.5214270747842896  1.0000
  H   H21       1.0  0.1760120166059403  0.931407966074514  0.9617442521742741  1.0000
  H   H22       1.0  0.8239879834437986  0.4314079652795933  0.5382557476703818  1.0000
  H   H23       1.0  0.8239879836502662  0.06859203343172657  0.03825574806253293  1.0000
  H   H24       1.0  0.17601201621914322  0.5685920342266472  0.4617442519730487  1.0000
  H   H25       1.0  0.27248636657477593  0.8243557534291521  0.9478979874795759  1.0000
  H   H26       1.0  0.7275136334749631  0.32435575263423144  0.5521020123650802  1.0000
  H   H27       1.0  0.7275136330881661  0.17564424607708848  0.05210201216385483  1.0000
  H   H28       1.0  0.2724863667812432  0.6756442468720091  0.44789798787172685  1.0000
  H   H29       1.0  0.28322710348921054  0.5595794735087998  0.01984865806967963  1.0000
  H   H30       1.0  0.7167728963801987  0.05957947479747981  0.480151341965902  1.0000
  H   H31       1.0  0.7167728963387116  0.4404205259974408  0.9801513421614426  1.0000
  H   H32       1.0  0.28322710328274325  0.9404205267923615  0.5198486576775284  1.0000
  H   H33       1.0  0.3696429864306431  0.4150532186140627  0.9671264822689605  1.0000
  H   H34       1.0  0.6303570136190959  0.9150532173253827  0.5328735175756953  1.0000
  H   H35       1.0  0.630357013660583  0.5849467808921779  0.03287351738015478  1.0000
  H   H36       1.0  0.36964298663711037  0.08494678218085792  0.46712648266111173  1.0000
  H   H37       1.0  0.4217512569586201  0.7349481113013503  0.905209907080884  1.0000
  H   H38       1.0  0.5782487430911188  0.2349481125900304  0.5947900927637717  1.0000
  H   H39       1.0  0.5782487428693021  0.26505188820489023  0.09479009315023813  1.0000
  H   H40       1.0  0.4217512570001073  0.7650518869162102  0.40520990688534353  1.0000
  H   H41       1.0  0.5372232474739236  0.0013929808398139368  0.14056624333783535  1.0000
  H   H42       1.0  0.46277675282377  0.5013929795511338  0.35943375670343114  1.0000
  H   H43       1.0  0.4627767526173026  0.9986070186664265  0.85943375631128  1.0000
  H   H44       1.0  0.5372232474324364  0.49860701995510665  0.6405662435333759  1.0000
  H   H45       1.0  0.48058263421042136  0.6668769301254841  0.19153350436320044  1.0000
  H   H46       1.0  0.519417365658988  0.16687693141416418  0.3084664956723812  1.0000
  H   H47       1.0  0.5194173656175007  0.3331230693807565  0.8084664958679217  1.0000
  H   H48       1.0  0.48058263416893415  0.8331230680920764  0.691533504558741  1.0000
  H   H49       1.0  0.03848998811116642  0.6686239022251226  0.7290370957521168  1.0000
  H   H50       1.0  0.9615100121035527  0.16862390351380258  0.7709629046802307  1.0000
  H   H51       1.0  0.96151001214504  0.33137609728111805  0.2709629044846901  1.0000
  H   H52       1.0  0.038489987724369366  0.8313760959924379  0.2290370955508915  1.0000
  H   H53       1.0  0.9758021926650049  0.3909142188552131  0.6127947070832349  1.0000
  H   H54       1.0  0.02419780712142999  0.890914217566533  0.8872052933434277  1.0000
  H   H55       1.0  0.024197807162917164  0.6090857806510275  0.3872052931478872  1.0000
  H   H56       1.0  0.9758021927064922  0.10908578193970758  0.11279470688769447  1.0000
  H   H57       1.0  0.06877868438853396  0.8291109657326633  0.48043686990387086  1.0000
  H   H58       1.0  0.9312213154808753  0.32911096493774267  0.019563130131710803  1.0000
  H   H59       1.0  0.931221315439388  0.17088903377357723  0.5195631303272513  1.0000
  H   H60       1.0  0.06877868418206659  0.6708890345684979  0.9804368695117196  1.0000
  H   H61       1.0  0.12655953101484368  0.08984882165953316  0.60296209478517  1.0000
  H   H62       1.0  0.8734404690348954  0.5898488224544538  0.8970379050594859  1.0000
  H   H63       1.0  0.8734404692413625  0.9101511778467074  0.39703790545163703  1.0000
  H   H64       1.0  0.12655953062804665  0.41015117913538746  0.10296209458394463  1.0000
  C   C1        1.0  0.2613479497612729  0.03329860851353687  0.1566581239188339  1.0000
  C   C2        1.0  0.7386520501081365  0.5332986072248568  0.34334187611674777  1.0000
  C   C3        1.0  0.738652049901669  0.9667013909927036  0.8433418757245966  1.0000
  C   C4        1.0  0.26134795014806994  0.46670139228138374  0.6566581241200592  1.0000
  C   C5        1.0  0.24227969323092968  0.8202528915062071  0.2045823429242967  1.0000
  C   C6        1.0  0.7577203066384796  0.32025289071128643  0.2954176571112849  1.0000
  C   C7        1.0  0.7577203070252766  0.17974710800003346  0.7954176573125102  1.0000
  C   C8        1.0  0.24227969302446234  0.6797471087949541  0.7045823425321456  1.0000
  C   C9        1.0  0.302436787486853  0.7151285137533223  0.2659223043214083  1.0000
  C   C10       1.0  0.6975632128108404  0.21512851295840169  0.23407769571985818  1.0000
  C   C11       1.0  0.6975632127693533  0.28487148575291826  0.7340776959153987  1.0000
  C   C12       1.0  0.30243678728038564  0.7848714865478389  0.7659223039292571  1.0000
  C   C13       1.0  0.3523490315642227  0.854878734922606  0.24478013289803416  1.0000
  C   C14       1.0  0.6476509683051865  0.3548787362112861  0.25521986713754746  1.0000
  C   C15       1.0  0.6476509685270034  0.14512126458363453  0.7552198667510811  1.0000
  C   C16       1.0  0.3523490315227355  0.6451212653785551  0.7447801330935747  1.0000
  C   C17       1.0  0.14271777989235057  0.5487979191153601  0.8988514228371164  1.0000
  C   C18       1.0  0.8572822201573884  0.04879792040404018  0.6011485770075395  1.0000
  C   C19       1.0  0.8572822197705915  0.4512020803908805  0.10114857680631414  1.0000
  C   C20       1.0  0.14271778009881786  0.9512020811858011  0.3988514232292675  1.0000
  C   C21       1.0  0.18787999413848047  0.7097918518343649  0.9668832527439069  1.0000
  C   C22       1.0  0.8121200059112584  0.20979185103944425  0.533116747100749  1.0000
  C   C23       1.0  0.8121200061177257  0.2902081497554764  0.03311674749290015  1.0000
  C   C24       1.0  0.18787999417996765  0.7902081484667963  0.46688325254836627  1.0000
  C   C25       1.0  0.2508726200891667  0.6436569441338704  0.9642454079407221  1.0000
  C   C26       1.0  0.7491273799605722  0.14365694542255045  0.5357545919039338  1.0000
  C   C27       1.0  0.7491273797387554  0.3563430553723702  0.03575459229040015  1.0000
  C   C28       1.0  0.2508726201306539  0.8563430561672909  0.4642454077451815  1.0000
  C   C29       1.0  0.23845520557482236  0.42342043818414815  0.9007761415291066  1.0000
  C   C30       1.0  0.7615447940466324  0.9234204389790688  0.5992238583098644  1.0000
  C   C31       1.0  0.7615447940881196  0.5765795613220923  0.09922385811432385  1.0000
  C   C32       1.0  0.2384552056163095  0.0765795605271717  0.4007761413335661  1.0000
  C   C33       1.0  0.40730306072283806  0.5488891641578586  0.00285700768485789  1.0000
  C   C34       1.0  0.5926969395748554  0.048889163362937915  0.49714299235640863  1.0000
  C   C35       1.0  0.5926969395333682  0.4511108374319827  0.997142992551949  1.0000
  C   C36       1.0  0.4073030605163708  0.9511108361433027  0.5028570072927068  1.0000
  C   C37       1.0  0.43621331752428766  0.7316413702918871  0.9690015359627119  1.0000
  C   C38       1.0  0.5637866825254514  0.23164137158056716  0.5309984638819439  1.0000
  C   C39       1.0  0.5637866821386543  0.2683586292143535  0.030998463680718617  1.0000
  C   C40       1.0  0.43621331773075495  0.7683586300092741  0.469001536354863  1.0000
  C   C41       1.0  0.4841442251139576  0.9016287862805955  0.017216067217812457  1.0000
  C   C42       1.0  0.5158557747554517  0.4016287854856749  0.4827839328177692  1.0000
  C   C43       1.0  0.5158557749772686  0.09837121322564506  0.9827839324313029  1.0000
  C   C44       1.0  0.4841442250724704  0.5983712140205657  0.517216067413353  1.0000
  C   C45       1.0  0.5008789297095402  0.8764874141407166  0.09892650611107574  1.0000
  C   C46       1.0  0.4991210701598691  0.376487413345796  0.4010734939245059  1.0000
  C   C47       1.0  0.4991210701183819  0.12351258744912462  0.9010734941200464  1.0000
  C   C48       1.0  0.500878929668053  0.6235125861604446  0.5989265063066163  1.0000
  C   C49       1.0  0.4696450660782158  0.6901055047192439  0.12864433940569645  1.0000
  C   C50       1.0  0.5303549337911935  0.19010550600792392  0.3713556606298852  1.0000
  C   C51       1.0  0.5303549337497063  0.3098944947869967  0.8713556608254258  1.0000
  C   C52       1.0  0.4696450660367287  0.8098944955819174  0.628644339601237  1.0000
  C   C53       1.0  0.04319300334692795  0.6952496252633567  0.6723540318423333  1.0000
  C   C54       1.0  0.9568069967028111  0.1952496265520367  0.8276459680023225  1.0000
  C   C55       1.0  0.9568069964809941  0.3047503742428839  0.3276459683887888  1.0000
  C   C56       1.0  0.043193003388415134  0.8047503729542039  0.17235403164679286  1.0000
  C   C57       1.0  0.008823676763765529  0.54034407176196  0.6067887792018075  1.0000
  C   C58       1.0  0.9911763232859734  0.040344070967039285  0.8932112206428483  1.0000
  C   C59       1.0  0.9911763233274606  0.45965592982788134  0.3932112204473077  1.0000
  C   C60       1.0  0.008823676541948688  0.9596559285392013  0.10678877958827393  1.0000
  C   C61       1.0  0.01754167368635376  0.5806193443170002  0.5356362066908177  1.0000
  C   C62       1.0  0.9824583265283654  0.08061934352207964  0.9643637937415298  1.0000
  C   C63       1.0  0.9824583261415683  0.4193806551892402  0.46436379354030444  1.0000
  C   C64       1.0  0.017541673727840934  0.9193806559841609  0.035636206495277205  1.0000
  C   C65       1.0  0.06059681025967538  0.7824972402022358  0.5340377499412033  1.0000
  C   C66       1.0  0.9394031897900635  0.2824972394073151  0.9659622499034525  1.0000
  C   C67       1.0  0.9394031899965309  0.21750276138760558  0.46596225029560356  1.0000
  C   C68       1.0  0.06059680987287836  0.7175027600989254  0.034037749739978036  1.0000
  C   C69       1.0  0.09296457464824062  0.9301895347173732  0.6016995417990434  1.0000
  C   C70       1.0  0.9070354254014983  0.4301895360060533  0.8983004580456124  1.0000
  C   C71       1.0  0.9070354251796815  0.06981046478886734  0.3983004584320788  1.0000
  C   C72       1.0  0.0929645746897278  0.5698104635001873  0.10169954160350288  1.0000
  N   N1        1.0  0.3247018913309252  0.027819217862021274  0.18098856537271077  1.0000
  N   N2        1.0  0.675298108538484  0.5278192186569419  0.3190114346628709  1.0000
  N   N3        1.0  0.6752981083320168  0.9721807816442194  0.8190114342707197  1.0000
  N   N4        1.0  0.32470189171772224  0.47218078293289933  0.680988565573936  1.0000
  N   N5        1.0  0.1755838369222406  0.3858933391261738  0.8660218969008912  1.0000
  N   N6        1.0  0.8244161631274983  0.8858933399210944  0.6339781029437644  1.0000
  N   N7        1.0  0.8244161633339657  0.6141066603800668  0.1339781033359157  1.0000
  N   N8        1.0  0.17558383696372784  0.11410666166874683  0.3660218967053508  1.0000
  N   N9        1.0  0.4239908726652137  0.5312008442760917  0.08121932284158201  1.0000
  N   N10       1.0  0.5760091274674995  0.031200843481171078  0.41878067661199275  1.0000
  N   N11       1.0  0.5760091274260125  0.4687991552301488  0.9187806768075334  1.0000
  N   N12       1.0  0.4239908726237265  0.9687991560250695  0.5812193230371225  1.0000
  N   N13       1.0  0.08438881123170365  0.8838290270982032  0.669288831263357  1.0000
  N   N14       1.0  0.9156111888180354  0.38382902630328264  0.8307111685812989  1.0000
  N   N15       1.0  0.9156111888595226  0.11617097449163802  0.33071116838575837  1.0000
  N   N16       1.0  0.08438881100988672  0.6161709732029579  0.16928883164982328  1.0000
  O   O1        1.0  0.22716097330125512  0.18675644290074359  0.104936666144166  1.0000
  O   O2        1.0  0.7728390265681541  0.6867564436956642  0.3950633338914156  1.0000
  O   O3        1.0  0.772839026526667  0.813243556605497  0.8950633340869563  1.0000
  O   O4        1.0  0.22716097309478775  0.31324355581057634  0.6049366657520149  1.0000
  O   O5        1.0  0.4082065083850049  0.8274162586733527  0.2786928868268124  1.0000
  O   O6        1.0  0.5917934914844043  0.32741625787843204  0.22130711320876925  1.0000
  O   O7        1.0  0.5917934914429173  0.17258374083288794  0.7213071134043099  1.0000
  O   O8        1.0  0.4082065083435177  0.6725837416278085  0.778692887022353  1.0000
  O   O9        1.0  0.08620707584099133  0.5540912067182395  0.8761918455047364  1.0000
  O   O10       1.0  0.9137929242087477  0.054091205923318834  0.6238081543399195  1.0000
  O   O11       1.0  0.913792924415215  0.4459087948716018  0.12380815473207063  1.0000
  O   O12       1.0  0.0862070758824785  0.9459087935829218  0.3761918453091958  1.0000
  O   O13       1.0  0.2765625718297939  0.29698304207096904  0.8816514210646502  1.0000
  O   O14       1.0  0.7234374282199451  0.7969830428658897  0.6183485787800055  1.0000
  O   O15       1.0  0.7234374279981282  0.7030169574352715  0.11834857916647189  1.0000
  O   O16       1.0  0.2765625718712811  0.20301695664035085  0.3816514208691098  1.0000
  Br  Br1       1.0  0.3724944234471143  0.2625548719379751  0.1333259994319326  1.0000
  Br  Br2       1.0  0.627505576422295  0.7625548706492951  0.366674000603649  1.0000
  Br  Br3       1.0  0.6275055763808078  0.7374451296518661  0.8666740007991895  1.0000
  Br  Br4       1.0  0.37249442340562716  0.23744512885694552  0.6333259996274732  1.0000
  Br  Br5       1.0  0.13415500852341328  0.1397448371450369  0.7736827366271606  1.0000
  Br  Br6       1.0  0.8658449915263258  0.6397448358563568  0.7263172632174952  1.0000
  Br  Br7       1.0  0.8658449911395286  0.8602551623612037  0.2263172630162699  1.0000
  Br  Br8       1.0  0.13415500872988062  0.3602551636498837  0.2736827370193118  1.0000
