data_image0
_chemical_formula_structural       H48C56N12O8Br4
_chemical_formula_sum              "H48 C56 N12 O8 Br4"
_cell_length_a       15.629245564455253
_cell_length_b       7.1178735511785165
_cell_length_c       12.08952415383994
_cell_angle_alpha    90.0
_cell_angle_beta     107.31989723431406
_cell_angle_gamma    90.0

_space_group_name_H-M_alt    "P 1"
_space_group_IT_number       1

loop_
  _space_group_symop_operation_xyz
  'x, y, z'

loop_
  _atom_site_type_symbol
  _atom_site_label
  _atom_site_symmetry_multiplicity
  _atom_site_fract_x
  _atom_site_fract_y
  _atom_site_fract_z
  _atom_site_occupancy
  H   H1        1.0  0.6185099629704743  0.41126460156282457  0.2636158654123562  1.0000
  H   H2        1.0  0.38149003749623056  0.9112646021824958  0.23638413454424917  1.0000
  H   H3        1.0  0.3814900371941422  0.5887353982716039  0.7363841343421326  1.0000
  H   H4        1.0  0.618509962668386  0.0887353976519327  0.7636158652102396  1.0000
  H   H5        1.0  0.623864463975793  0.6500449209629344  0.22561617771930204  1.0000
  H   H6        1.0  0.37613553585100296  0.1500449217481771  0.27438382223694374  1.0000
  H   H7        1.0  0.3761355355489146  0.34995507887149413  0.774383822034827  1.0000
  H   H8        1.0  0.6238644645128755  0.8499550794911654  0.7256161783839944  1.0000
  H   H9        1.0  0.5217512940652567  0.7314052044571692  0.33184936520798525  1.0000
  H   H10       1.0  0.4782487059608012  0.23140520383749794  0.16815063561470986  1.0000
  H   H11       1.0  0.47824870629862176  0.26859479537725933  0.6681506354129528  1.0000
  H   H12       1.0  0.5217512937631683  0.7685947959969306  0.8318493650058687  1.0000
  H   H13       1.0  0.5122036043693532  0.4901623897803488  0.36425324221317523  1.0000
  H   H14       1.0  0.4877963954574428  0.9901623904000201  0.13574675774307046  1.0000
  H   H15       1.0  0.48779639515535445  0.5098376100540797  0.6357467575409539  1.0000
  H   H16       1.0  0.5122036049064356  0.00983760943440843  0.8642532428778675  1.0000
  H   H17       1.0  0.5676266455509102  0.14985040719406975  0.5217954689824645  1.0000
  H   H18       1.0  0.4323733545108797  0.6498504078137409  0.9782045314363569  1.0000
  H   H19       1.0  0.4323733541730591  0.8501495926403587  0.4782045316381138  1.0000
  H   H20       1.0  0.5676266456537369  0.35014959342560154  0.021795468318131925  1.0000
  H   H21       1.0  0.7251761000080603  0.1935131440726341  0.647134328572345  1.0000
  H   H22       1.0  0.27482389985446787  0.6935131432873914  0.8528656709800271  1.0000
  H   H23       1.0  0.27482389951664726  0.8064868557617945  0.35286567118178414  1.0000
  H   H24       1.0  0.7251761003101488  0.3064868565470371  0.14713432877446164  1.0000
  H   H25       1.0  0.8108998135576619  0.048243215832788226  0.3490976542808979  1.0000
  H   H26       1.0  0.18910018690904282  0.5482432150475455  0.1509023456757074  1.0000
  H   H27       1.0  0.18910018660695452  0.9517567840016403  0.6509023454735908  1.0000
  H   H28       1.0  0.8108998132555737  0.45175678478688297  0.8490976540787812  1.0000
  H   H29       1.0  0.6511992247943178  0.0034982020713022234  0.2394787582127599  1.0000
  H   H30       1.0  0.34880077503247814  0.5034982012860595  0.26052124174348584  1.0000
  H   H31       1.0  0.34880077473038984  0.9965017991680403  0.7605212415413692  1.0000
  H   H32       1.0  0.6511992251321385  0.496501798548369  0.7394787580110029  1.0000
  H   H33       1.0  0.015529572195029867  0.06461881581527192  0.8518047884175634  1.0000
  H   H34       1.0  0.9844704276674983  0.5646188150300292  0.6481952111348087  1.0000
  H   H35       1.0  0.9844704273296777  0.9353811840191566  0.14819521133656569  1.0000
  H   H36       1.0  0.015529572497118217  0.4353811848043993  0.35180478861968  1.0000
  H   H37       1.0  0.8537916541629911  0.04902461352972808  0.7402520685477887  1.0000
  H   H38       1.0  0.14620834589879905  0.5490246141493993  0.7597479318710327  1.0000
  H   H39       1.0  0.14620834620088738  0.9509753863047005  0.2597479320731494  1.0000
  H   H40       1.0  0.8537916536259087  0.45097538568502915  0.24025206788309636  1.0000
  H   H41       1.0  0.9276850364849943  0.24604442428034318  0.4424750231005641  1.0000
  H   H42       1.0  0.07231496334180161  0.7460444234951005  0.05752497685568164  1.0000
  H   H43       1.0  0.07231496387888407  0.7539555769589993  0.5575249775203739  1.0000
  H   H44       1.0  0.9276850361829061  0.2539555763393281  0.9424750228984474  1.0000
  H   H45       1.0  0.08726331346374076  0.2559908541362484  0.5692593040150534  1.0000
  H   H46       1.0  0.9127366865980494  0.7559908533510056  0.9307406964037681  1.0000
  H   H47       1.0  0.9127366869001377  0.7440091471030941  0.4307406966058846  1.0000
  H   H48       1.0  0.0872633129266583  0.24400914648342287  0.06925930335036111  1.0000
  C   C1        1.0  0.7180128287248643  0.5693075749187848  0.3868893574697992  1.0000
  C   C2        1.0  0.2819871717418405  0.06930757570402749  0.11311064248680613  1.0000
  C   C3        1.0  0.28198717143975216  0.43069242491564375  0.6131106422846895  1.0000
  C   C4        1.0  0.718012828422776  0.9306924241304011  0.8868893572676826  1.0000
  C   C5        1.0  0.6267129404981815  0.5549407054788144  0.2981994459101492  1.0000
  C   C6        1.0  0.3732870593286145  0.054940704859143145  0.20180055404609654  1.0000
  C   C7        1.0  0.37328705966643505  0.44505929435561414  0.7018005538443395  1.0000
  C   C8        1.0  0.626712940395355  0.9450592949752854  0.7981994465744819  1.0000
  C   C9        1.0  0.5599575760851772  0.603028078419477  0.36414820936661607  1.0000
  C   C10       1.0  0.4400424239408807  0.10302807779980577  0.13585179145607906  1.0000
  C   C11       1.0  0.44004242363879237  0.39697192141495147  0.6358517912539624  1.0000
  C   C12       1.0  0.5599575764229977  0.8969719220346227  0.864148209164859  1.0000
  C   C13       1.0  0.6160430131142959  0.6370671208747738  0.4877268042921754  1.0000
  C   C14       1.0  0.3839569873524091  0.13706712166001658  0.01227319566442991  1.0000
  C   C15       1.0  0.3839569870503207  0.3629328789596547  0.5122731954623133  1.0000
  C   C16       1.0  0.6160430128122075  0.862932879579326  0.9877268040900588  1.0000
  C   C17       1.0  0.6238352978639229  0.12702031913032572  0.48716272876196237  1.0000
  C   C18       1.0  0.37616470196287305  0.627020319749997  0.012837271194283385  1.0000
  C   C19       1.0  0.3761647024999555  0.8729796807041028  0.5128372718589757  1.0000
  C   C20       1.0  0.6238352975618345  0.37297968008443155  0.9871627285598458  1.0000
  C   C21       1.0  0.7118123534404913  0.15211133384362163  0.5568358545762191  1.0000
  C   C22       1.0  0.28818764642203687  0.6521113344632928  0.943164144976153  1.0000
  C   C23       1.0  0.2881876460842163  0.8478886659908069  0.44316414517791003  1.0000
  C   C24       1.0  0.7118123537425798  0.34788866537113566  0.05683585477833571  1.0000
  C   C25       1.0  0.7823624471580751  0.12554720080016601  0.5088811180125606  1.0000
  C   C26       1.0  0.21763755270445312  0.6255472014198372  0.9911188815398113  1.0000
  C   C27       1.0  0.21763755236663257  0.8744527990342624  0.4911188817415685  1.0000
  C   C28       1.0  0.7823624474601634  0.37445279981950524  0.0088811182146773  1.0000
  C   C29       1.0  0.7596851207483063  0.07390158538471167  0.39178897311885913  1.0000
  C   C30       1.0  0.24031487907848964  0.5739015845994689  0.10821102683738659  1.0000
  C   C31       1.0  0.2403148796155721  0.9260984158546308  0.6082110275020789  1.0000
  C   C32       1.0  0.7596851204462179  0.42609841523495956  0.8917889729167426  1.0000
  C   C33       1.0  0.6697875964669238  0.04915539978117053  0.3298296818308135  1.0000
  C   C34       1.0  0.3302124033598723  0.5491553989959278  0.17017031812543224  1.0000
  C   C35       1.0  0.3302124036976927  0.950844600053258  0.6701703179236751  1.0000
  C   C36       1.0  0.6697875961648353  0.45084460083850075  0.8298296816286967  1.0000
  C   C37       1.0  0.9923852933980061  0.10490320945310554  0.7607042119159899  1.0000
  C   C38       1.0  0.007614706464522065  0.6049032100727768  0.7392957876363822  1.0000
  C   C39       1.0  0.007614706766610386  0.8950967903813231  0.23929578783849878  1.0000
  C   C40       1.0  0.9923852930601856  0.39509678976165175  0.260704212117747  1.0000
  C   C41       1.0  0.9024003667689069  0.09755737510748937  0.6979295822000771  1.0000
  C   C42       1.0  0.09759963329288325  0.5975573757271607  0.8020704182187443  1.0000
  C   C43       1.0  0.09759963359497162  0.9024426247269391  0.302070418420861  1.0000
  C   C44       1.0  0.9024003668717332  0.4024426255121819  0.19792958153574436  1.0000
  C   C45       1.0  0.8767636606297741  0.14442324419064662  0.579852349752768  1.0000
  C   C46       1.0  0.12323633923275402  0.6444232448103179  0.9201476497996042  1.0000
  C   C47       1.0  0.12323633953484232  0.8555767556437819  0.42014765000172066  1.0000
  C   C48       1.0  0.8767636609318625  0.3555767550241107  0.07985234995488467  1.0000
  C   C49       1.0  0.9443264119369875  0.20276167448367244  0.5327413221375736  1.0000
  C   C50       1.0  0.055673588124802526  0.7027616751033438  0.9672586782812478  1.0000
  C   C51       1.0  0.05567358758772007  0.7972383253507561  0.46725867761655554  1.0000
  C   C52       1.0  0.9443264122390759  0.29723832473108486  0.03274132233969021  1.0000
  C   C53       1.0  0.03317690309684697  0.20775422032541702  0.6022405604777458  1.0000
  C   C54       1.0  0.9668230967656811  0.7077542209450882  0.8977594390746263  1.0000
  C   C55       1.0  0.9668230970677696  0.7922457795090115  0.397759439276743  1.0000
  C   C56       1.0  0.033176903398935274  0.2922457788893403  0.10224056067986233  1.0000
  N   N1        1.0  0.7055169965114477  0.6197852179137929  0.492254278778967  1.0000
  N   N2        1.0  0.29448300331534827  0.11978521869903563  0.0077457211772787955  1.0000
  N   N3        1.0  0.2944830030132599  0.38021478192063557  0.5077457209751621  1.0000
  N   N4        1.0  0.7055169968492683  0.8802147811353929  0.9922542785772099  1.0000
  N   N5        1.0  0.6019912738688141  0.07513635724976465  0.3753885122591429  1.0000
  N   N6        1.0  0.39800872595798187  0.5751363578694358  0.12461148769710287  1.0000
  N   N7        1.0  0.39800872565589357  0.9248636425846638  0.6246114874949862  1.0000
  N   N8        1.0  0.6019912742066346  0.42486364196499266  0.875388512057386  1.0000
  N   N9        1.0  0.05674384185980567  0.15702782607242863  0.7143673663455373  1.0000
  N   N10       1.0  0.9432561582019844  0.657027825287186  0.7856326340732841  1.0000
  N   N11       1.0  0.9432561578641638  0.842972173762  0.28563263427504104  1.0000
  N   N12       1.0  0.05674384196263214  0.3429721745472426  0.21436736568120468  1.0000
  O   O1        1.0  0.5894993616649148  0.6725773878361967  0.5714747274609125  1.0000
  O   O2        1.0  0.4105006388375223  0.17257738721652546  0.928525272091819  1.0000
  O   O3        1.0  0.4105006384997018  0.3274226119982318  0.4285252722935762  1.0000
  O   O4        1.0  0.5894993613270942  0.8274226126179031  0.0714747276626696  1.0000
  O   O5        1.0  0.7916093149827195  0.541596125905007  0.3724646791304184  1.0000
  O   O6        1.0  0.20839068484407647  0.04159612669024983  0.12753532082582736  1.0000
  O   O7        1.0  0.20839068454198814  0.4584038739294214  0.6275353206237106  1.0000
  O   O8        1.0  0.79160931532054  0.9584038731441787  0.8724646789286614  1.0000
  Br  Br1       1.0  0.8053557417824135  0.6447498268974098  0.632439568660889  1.0000
  Br  Br2       1.0  0.19464425827937662  0.1447498262777385  0.8675604317579324  1.0000
  Br  Br3       1.0  0.19464425774229416  0.35525017293701877  0.3675604310932401  1.0000
  Br  Br4       1.0  0.8053557420845018  0.85525017355669  0.13243956886300565  1.0000
