data_image0
_chemical_formula_structural       H100C102N2O8Br2
_chemical_formula_sum              "H100 C102 N2 O8 Br2"
_cell_length_a       8.014600554428116
_cell_length_b       29.000645012579675
_cell_length_c       9.10575784643322
_cell_angle_alpha    90.0
_cell_angle_beta     105.54828260661861
_cell_angle_gamma    90.0

_space_group_name_H-M_alt    "P 1"
_space_group_IT_number       1

loop_
  _space_group_symop_operation_xyz
  'x, y, z'

loop_
  _atom_site_type_symbol
  _atom_site_label
  _atom_site_symmetry_multiplicity
  _atom_site_fract_x
  _atom_site_fract_y
  _atom_site_fract_z
  _atom_site_occupancy
  H   H1        1.0  0.673684857081234  0.2520259151763554  0.36263870900091516  1.0000
  H   H2        1.0  0.32631514242491366  0.7520259149594692  0.6373612908328827  1.0000
  H   H3        1.0  0.5425408114266685  0.2935917041261224  0.23967954919748266  1.0000
  H   H4        1.0  0.45745918807947905  0.7935917039092363  0.7603204506363153  1.0000
  H   H5        1.0  0.4400085414505148  0.2517263870108187  0.3325977046435349  1.0000
  H   H6        1.0  0.5599914580556328  0.7517263867939326  0.667402295190263  1.0000
  H   H7        1.0  0.7979881055660549  0.2299992202624005  0.1614994260490033  1.0000
  H   H8        1.0  0.20201189519117876  0.7299992200455143  0.8385005737960373  1.0000
  H   H9        1.0  0.6621498252149135  0.2061844947726599  0.9884809988046047  1.0000
  H   H10       1.0  0.33785017429123415  0.7061844949005938  0.011519001029192998  1.0000
  H   H11       1.0  0.6583675671888579  0.2667931881047414  0.021767612619133164  1.0000
  H   H12       1.0  0.34163243356837575  0.7667931882326753  0.9782323872259073  1.0000
  H   H13       1.0  0.3665321289010104  0.27270698415740185  0.9957896923045172  1.0000
  H   H14       1.0  0.6334678706051372  0.7727069839405156  0.004210307529280687  1.0000
  H   H15       1.0  0.3457680600859456  0.21405422111498787  0.933891724367749  1.0000
  H   H16       1.0  0.654231939420202  0.7140542212429216  0.06610827546604889  1.0000
  H   H17       1.0  0.2535842155404863  0.23091215512948765  0.08371660040334601  1.0000
  H   H18       1.0  0.7464157852167473  0.7309121552574214  0.9162833994416946  1.0000
  H   H19       1.0  0.4189667901154672  0.1771243014688754  0.2614827994971753  1.0000
  H   H20       1.0  0.5810332106417664  0.6771243015968091  0.7385172003478652  1.0000
  H   H21       1.0  0.4703948837933978  0.15659485704645834  0.0953253869732512  1.0000
  H   H22       1.0  0.5296051157127498  0.6565948568295722  0.9046746128605467  1.0000
  H   H23       1.0  0.7821117484651924  0.15454237786973038  0.22694457709597093  1.0000
  H   H24       1.0  0.21788825137578915  0.6545423779976641  0.7730554238776933  1.0000
  H   H25       1.0  0.7499459806597238  0.17973163313226428  0.39254332340260195  1.0000
  H   H26       1.0  0.25005402043234387  0.679731633260198  0.6074566775823048  1.0000
  H   H27       1.0  0.5686299995332501  0.11216777932314836  0.42679093441429805  1.0000
  H   H28       1.0  0.43137000030773154  0.6121677791062622  0.5732090665593661  1.0000
  H   H29       1.0  0.5893779076589927  0.08828853078575868  0.2551480748029479  1.0000
  H   H30       1.0  0.4106220930982409  0.5882885309136925  0.7448519250420926  1.0000
  H   H31       1.0  0.9275043658651  0.09221932715082409  0.38578904790803764  1.0000
  H   H32       1.0  0.0724956348921337  0.5922193272787578  0.6142109519370029  1.0000
  H   H33       1.0  0.8678883952669219  0.10072771997770663  0.5560118805263428  1.0000
  H   H34       1.0  0.13211160457405988  0.6007277197608205  0.44398812044732155  1.0000
  H   H35       1.0  0.9173756727160328  0.019066630751148738  0.5362289628955624  1.0000
  H   H36       1.0  0.08262432679011486  0.5190666308790824  0.46377103693823535  1.0000
  H   H37       1.0  0.6911772685303677  0.02493670743137969  0.49792050323142956  1.0000
  H   H38       1.0  0.30882273097578  0.5249367075593134  0.5020794966023683  1.0000
  H   H39       1.0  0.6677438865340749  0.020572475534292596  0.21514900625674024  1.0000
  H   H40       1.0  0.33225611297207275  0.5205724753174065  0.7848509935770576  1.0000
  H   H41       1.0  0.8947940317222124  0.017958734703110397  0.25665582732935105  1.0000
  H   H42       1.0  0.1052059677839352  0.5179587348310442  0.7433441725044468  1.0000
  H   H43       1.0  0.8814500326697592  0.9429024643465203  0.404239248910321  1.0000
  H   H44       1.0  0.11854996683638847  0.44290246421858653  0.5957607509234769  1.0000
  H   H45       1.0  0.6553989996380055  0.9454086261911439  0.3363111380958217  1.0000
  H   H46       1.0  0.344600999868142  0.44540862640803  0.6636888617379761  1.0000
  H   H47       1.0  0.7837842493501671  0.8952327011602074  0.16726012180139635  1.0000
  H   H48       1.0  0.21621575015598055  0.3952327010322736  0.8327398780324015  1.0000
  H   H49       1.0  0.6812602233022353  0.9442588824531843  0.06401393100514613  1.0000
  H   H50       1.0  0.31873977620391225  0.44425888232525057  0.9359860688286517  1.0000
  H   H51       1.0  0.909481386778675  0.9424233363825053  0.13438958874491458  1.0000
  H   H52       1.0  0.09051861272747272  0.4424233365993914  0.8656104110888833  1.0000
  H   H53       1.0  0.24594291637752072  0.13532573528270306  0.36035889649128494  1.0000
  H   H54       1.0  0.7540570831286268  0.6353257354106369  0.6396411033425129  1.0000
  H   H55       1.0  0.3062083440257461  0.051237614865305495  0.3528476633538385  1.0000
  H   H56       1.0  0.6937916554804016  0.5512376146484194  0.6471523364799594  1.0000
  H   H57       1.0  0.2973799070388224  0.9811083214755387  0.20526683920497996  1.0000
  H   H58       1.0  0.7026200924673253  0.48110832134760495  0.794733160628818  1.0000
  H   H59       1.0  0.17926521700559178  0.9354042638787143  0.9681809723324045  1.0000
  H   H60       1.0  0.8207347837516418  0.43540426409560046  0.031819027512635864  1.0000
  H   H61       1.0  0.9623680806878322  0.9708414750012329  0.7489112857849537  1.0000
  H   H62       1.0  0.03763191881831538  0.470841475218119  0.2510887140488442  1.0000
  H   H63       1.0  0.8622978682151667  0.05048785223104103  0.7658500063502331  1.0000
  H   H64       1.0  0.13770213254206692  0.5504878523589748  0.23414999349480728  1.0000
  H   H65       1.0  0.6911830791053815  0.0683863924109178  0.0039169056293797706  1.0000
  H   H66       1.0  0.30881692165185215  0.5683863921940318  0.9960830942156607  1.0000
  H   H67       1.0  0.3762043828165728  0.05503793895989695  0.9437502564756151  1.0000
  H   H68       1.0  0.6237956179406609  0.5550379390878307  0.05624974336942553  1.0000
  H   H69       1.0  0.1738576488449022  0.10208289466375076  0.7429810158327013  1.0000
  H   H70       1.0  0.8261423509960795  0.6020828944468647  0.25701898514096294  1.0000
  H   H71       1.0  0.28754818085403083  0.16662968109515677  0.6188475886009113  1.0000
  H   H72       1.0  0.7124518189869508  0.6666296812230905  0.38115241237275294  1.0000
  H   H73       1.0  0.520374888927383  0.21360233116583963  0.5909361853595811  1.0000
  H   H74       1.0  0.47962511182985046  0.7136023312937734  0.4090638144854593  1.0000
  H   H75       1.0  0.8381460867932353  0.2333987225823398  0.6593575717837615  1.0000
  H   H76       1.0  0.16185391271291227  0.7333987227102736  0.34064242805003636  1.0000
  H   H77       1.0  0.13641163693627972  0.30500440925238537  0.760852637775055  1.0000
  H   H78       1.0  0.8635883629047019  0.8050044090354993  0.2391473631986093  1.0000
  H   H79       1.0  0.13129153239380806  0.2997778444661797  0.03480904845018075  1.0000
  H   H80       1.0  0.8687084683634255  0.7997778445941135  0.9651909513948598  1.0000
  H   H81       1.0  0.0017247605173761349  0.3182817291131324  0.23736762787115043  1.0000
  H   H82       1.0  0.9982752393236054  0.8182817288962463  0.7626323731025139  1.0000
  H   H83       1.0  0.7674517346098942  0.35416014456039785  0.3281872687730461  1.0000
  H   H84       1.0  0.23254826489625333  0.8541601443435117  0.6718127310607518  1.0000
  H   H85       1.0  0.5071259550230369  0.38680569846408963  0.13874488069519864  1.0000
  H   H86       1.0  0.4928740444831108  0.8868056985920234  0.8612551191385992  1.0000
  H   H87       1.0  0.49369801858642  0.387280971341435  0.865826784417425  1.0000
  H   H88       1.0  0.5063019821708137  0.8872809711245488  0.1341732154276155  1.0000
  H   H89       1.0  0.833978533885071  0.4287418584864773  0.6258122606487138  1.0000
  H   H90       1.0  0.16602146562107653  0.928741858614411  0.374187739185084  1.0000
  H   H91       1.0  0.8279193175649213  0.4927494631171607  0.44549230823972513  1.0000
  H   H92       1.0  0.17208068319231234  0.9927494632450945  0.5545076916053154  1.0000
  H   H93       1.0  0.5637788810358354  0.5063688515765785  0.2319031507096112  1.0000
  H   H94       1.0  0.43622111847031225  0.006368851448644743  0.7680968491241866  1.0000
  H   H95       1.0  0.30715705805997245  0.4556483565888997  0.20080271575329905  1.0000
  H   H96       1.0  0.6928429414461752  0.9556483563720135  0.7991972840804988  1.0000
  H   H97       1.0  0.16335047194252547  0.3901804706444169  0.28177643649623724  1.0000
  H   H98       1.0  0.8366495275636222  0.8901804707723507  0.7182235633375607  1.0000
  H   H99       1.0  0.1538857391094502  0.33000235394242705  0.47455221221702126  1.0000
  H   H100      1.0  0.8461142616477835  0.8300023540703608  0.5254477876280192  1.0000
  C   C1        1.0  0.5474929111482852  0.2581458469890104  0.2815312219552547  1.0000
  C   C2        1.0  0.4525070896089484  0.7581458471169442  0.7184687778897859  1.0000
  C   C3        1.0  0.6731972561035338  0.23278624861866432  0.07562143633371586  1.0000
  C   C4        1.0  0.3268027449885339  0.732786248746598  0.9243785646511911  1.0000
  C   C5        1.0  0.360544734729522  0.23691749638739604  0.03208926073025187  1.0000
  C   C6        1.0  0.6394552647766256  0.7369174965153298  0.9679107391035459  1.0000
  C   C7        1.0  0.5192527865031659  0.17692708792422768  0.19988144391734838  1.0000
  C   C8        1.0  0.48074721333781567  0.6769270877073416  0.8001185570563158  1.0000
  C   C9        1.0  0.6889907464792169  0.15730265716576936  0.29565503260533915  1.0000
  C   C10       1.0  0.31100925427801673  0.6573026569488832  0.7043449672397013  1.0000
  C   C11       1.0  0.6573205733902282  0.1094759357463542  0.3533601396736757  1.0000
  C   C12       1.0  0.34267942770183935  0.6094759355294681  0.6466398613112311  1.0000
  C   C13       1.0  0.8235740354622948  0.08529536460058085  0.44138291167402377  1.0000
  C   C14       1.0  0.17642596529493879  0.5852953647285146  0.5586170881710169  1.0000
  C   C15       1.0  0.8026690382454885  0.032994329249744  0.45264250343851653  1.0000
  C   C16       1.0  0.19733096126065908  0.5329943290328579  0.5473574963952813  1.0000
  C   C17       1.0  0.7842467774121807  0.008265407196840754  0.3008075264963627  1.0000
  C   C18       1.0  0.21575322209396683  0.5082654069799546  0.6991924733374353  1.0000
  C   C19       1.0  0.7759274418846711  0.9557616052324639  0.3089285943075077  1.0000
  C   C20       1.0  0.22407255762147651  0.4557616051045302  0.6910714055262902  1.0000
  C   C21       1.0  0.7879684071638763  0.9329870366077486  0.1609331462214366  1.0000
  C   C22       1.0  0.21203159267710536  0.43298703647981496  0.8390668547522276  1.0000
  C   C23       1.0  0.07888202723143899  0.1386974999437161  0.12926882678408372  1.0000
  C   C24       1.0  0.9211179735257946  0.6386975000716499  0.8707311730609568  1.0000
  C   C25       1.0  0.19112529195204117  0.1146447721613711  0.25892537452401726  1.0000
  C   C26       1.0  0.8088747075541065  0.6146447719444849  0.7410746253097806  1.0000
  C   C27       1.0  0.2210154549971065  0.06867638354719605  0.2547130974040154  1.0000
  C   C28       1.0  0.7789845445090411  0.5686763836751298  0.7452869024297825  1.0000
  C   C29       1.0  0.1457458239783132  0.04164729713687714  0.12096794144781595  1.0000
  C   C30       1.0  0.8542541767789205  0.541647296919991  0.8790320583972245  1.0000
  C   C31       1.0  0.20047449793321065  0.9960005750724039  0.10900425365412932  1.0000
  C   C32       1.0  0.799525502824023  0.4960005752892901  0.8909957461909113  1.0000
  C   C33       1.0  0.13455543893145538  0.9704418566480902  0.977107207312708  1.0000
  C   C34       1.0  0.8654445618257782  0.4704418565201565  0.022892792532332656  1.0000
  C   C35       1.0  0.011583188542619747  0.9904350454115985  0.8539062755019876  1.0000
  C   C36       1.0  0.988416812214614  0.49043504562848467  0.14609372434305293  1.0000
  C   C37       1.0  0.9548347296089672  0.03518714116728636  0.8635670574457894  1.0000
  C   C38       1.0  0.04516527114826655  0.5351871412952202  0.13643294239925105  1.0000
  C   C39       1.0  0.019270068357549686  0.06221848201022121  0.9962668352363672  1.0000
  C   C40       1.0  0.9807299311485979  0.562218482138155  0.0037331645974305844  1.0000
  C   C41       1.0  0.9804537454022143  0.11061142187039441  0.0014209192849102517  1.0000
  C   C42       1.0  0.01954625410393338  0.6106114216535082  0.9985790805488878  1.0000
  C   C43       1.0  0.8555514395052379  0.13517363211402916  0.8853809820848487  1.0000
  C   C44       1.0  0.14444856125199562  0.635173631897143  0.11461901776019179  1.0000
  C   C45       1.0  0.6750212185716468  0.12346126916994077  0.8394259872552431  1.0000
  C   C46       1.0  0.32497878218558696  0.6234612689530545  0.16057401258979748  1.0000
  C   C47       1.0  0.6041159282704753  0.08870584184883161  0.9149881985950595  1.0000
  C   C48       1.0  0.39588407248675833  0.5887058416319455  0.08501180124998116  1.0000
  C   C49       1.0  0.4272308252950575  0.08111574170090322  0.8808791259198108  1.0000
  C   C50       1.0  0.5727691754621762  0.5811157414840171  0.11912087392522973  1.0000
  C   C51       1.0  0.3127622078567347  0.10781577474031052  0.7689704089343679  1.0000
  C   C52       1.0  0.6872377916494129  0.6078157745234244  0.23102959089943  1.0000
  C   C53       1.0  0.3768689581165352  0.14348683273061624  0.697481972485714  1.0000
  C   C54       1.0  0.6231310413896126  0.6434868325137302  0.302518027348084  1.0000
  C   C55       1.0  0.5557446629834065  0.15214722079753873  0.7315832687532902  1.0000
  C   C56       1.0  0.44425533777382703  0.6521472209254724  0.2684167310917504  1.0000
  C   C57       1.0  0.6177509979003077  0.19221864298473193  0.6684439247439403  1.0000
  C   C58       1.0  0.38224900194067385  0.6922186431126658  0.33155607622972383  1.0000
  C   C59       1.0  0.7880801898156371  0.20372559394583115  0.7075720383931963  1.0000
  C   C60       1.0  0.2119198112764305  0.7037255940737649  0.2924279625917105  1.0000
  C   C61       1.0  0.917727094371126  0.17491328271490678  0.8098786484623648  1.0000
  C   C62       1.0  0.0822729051350217  0.6749132828428406  0.19012135137143302  1.0000
  C   C63       1.0  0.8883324337375387  0.33977196113140856  0.6856824605612113  1.0000
  C   C64       1.0  0.11166756701969494  0.8397719609145224  0.31431753928382916  1.0000
  C   C65       1.0  0.027519492763426925  0.31749172771867856  0.80068912958134  1.0000
  C   C66       1.0  0.9724805067427207  0.8174917278466124  0.19931087025245786  1.0000
  C   C67       1.0  0.024005249756035546  0.31474480674621585  0.9483302687414441  1.0000
  C   C68       1.0  0.9759947497501121  0.8147448068741497  0.0516697310923538  1.0000
  C   C69       1.0  0.882227362407428  0.3326188857460157  0.9999722854769253  1.0000
  C   C70       1.0  0.11777263709871957  0.8326188855291297  2.7714356872561422e-05  1.0000
  C   C71       1.0  0.890964542173274  0.33392081196123  0.15592013259092857  1.0000
  C   C72       1.0  0.10903545733287359  0.8339208120891638  0.8440798672428693  1.0000
  C   C73       1.0  0.7569937231154849  0.35314401060933515  0.20642343952128345  1.0000
  C   C74       1.0  0.24300627639066275  0.853144010392449  0.7935765603125144  1.0000
  C   C75       1.0  0.6113219282397054  0.3712335530926985  0.10010716190015209  1.0000
  C   C76       1.0  0.3886780728523623  0.8712335532206323  0.8998928390847548  1.0000
  C   C77       1.0  0.601940282603378  0.37070278972542436  0.9461841474257631  1.0000
  C   C78       1.0  0.39805971723760375  0.870702789853358  0.05381585354790126  1.0000
  C   C79       1.0  0.7344647821296907  0.350705345539323  0.8915752784132639  1.0000
  C   C80       1.0  0.26553521862754303  0.8507053453224368  0.10842472143177653  1.0000
  C   C81       1.0  0.7317298533318144  0.3546886693567723  0.7336521932300751  1.0000
  C   C82       1.0  0.26827014617433326  0.854688669484706  0.26634780660372276  1.0000
  C   C83       1.0  0.5785431932783617  0.3680193369964853  0.623687351011144  1.0000
  C   C84       1.0  0.421456807478872  0.8680193367795992  0.3763126488338965  1.0000
  C   C85       1.0  0.5794341320065859  0.4027579957250411  0.5106844040176376  1.0000
  C   C86       1.0  0.42056586749956176  0.9027579955081549  0.48931559581616035  1.0000
  C   C87       1.0  0.7209736260970411  0.4334932841854654  0.5292400637432726  1.0000
  C   C88       1.0  0.2790263734091066  0.9334932843133992  0.47075993609052535  1.0000
  C   C89       1.0  0.7165470394271206  0.4698456590910131  0.4295019798409921  1.0000
  C   C90       1.0  0.28345296007902704  0.9698456592189469  0.5704980199928058  1.0000
  C   C91       1.0  0.5677815598249161  0.4776317183287319  0.3094585980249167  1.0000
  C   C92       1.0  0.4322184412671516  0.9776317184566657  0.6905414029599901  1.0000
  C   C93       1.0  0.4243052029419897  0.4491467684373875  0.2920615301998757  1.0000
  C   C94       1.0  0.5756947965641579  0.9491467685653213  0.7079384696339222  1.0000
  C   C95       1.0  0.4273741758771024  0.4116921366687205  0.39060297928733956  1.0000
  C   C96       1.0  0.5726258236290452  0.9116921367966544  0.6093970205464584  1.0000
  C   C97       1.0  0.27664674942995127  0.3833291695814987  0.3769523100459067  1.0000
  C   C98       1.0  0.7233532500761963  0.8833291697094325  0.6230476897878912  1.0000
  C   C99       1.0  0.2699820795762776  0.35037295672535634  0.48075378953322895  1.0000
  C   C100      1.0  0.73001791992987  0.8503729568532901  0.5192462103005689  1.0000
  C   C101      1.0  0.4132323953824825  0.3423243709129114  0.6162315935213216  1.0000
  C   C102      1.0  0.5867676041236651  0.8423243710408452  0.38376840631247633  1.0000
  N   N1        1.0  0.5277149130123282  0.226305727929608  0.14817090381833642  1.0000
  N   N2        1.0  0.47228508649381945  0.7263057280575418  0.8518290960154614  1.0000
  O   O1        1.0  0.058772425636493285  0.1817736787479501  0.1319034602222658  1.0000
  O   O2        1.0  0.9412275738696545  0.6817736788758839  0.8680965396115322  1.0000
  O   O3        1.0  0.07495622251757923  0.17982069528929145  0.8186022314930448  1.0000
  O   O4        1.0  0.9250437773234024  0.6798206950724053  0.18139776948061945  1.0000
  O   O5        1.0  0.897346789169723  0.34249064273196606  0.5512795207879703  1.0000
  O   O6        1.0  0.10265321158751067  0.8424906428598999  0.44872047905707024  1.0000
  O   O7        1.0  0.3983238078642198  0.3132367116682951  0.7128523984010032  1.0000
  O   O8        1.0  0.6016761916419278  0.8132367117962288  0.28714760143279455  1.0000
  Br  Br1       1.0  0.10851173160470214  0.2331565317622062  0.42585916419713093  1.0000
  Br  Br2       1.0  0.8914882679014455  0.73315653189014  0.5741408356366671  1.0000
