data_image0
_chemical_formula_structural       C8O4Cl4
_chemical_formula_sum              "C8 O4 Cl4"
_cell_length_a       9.560137943793805
_cell_length_b       8.62347458323789
_cell_length_c       3.3602643786235875
_cell_angle_alpha    90.0
_cell_angle_beta     84.13035543635556
_cell_angle_gamma    90.0

_space_group_name_H-M_alt    "P 1"
_space_group_IT_number       1

loop_
  _space_group_symop_operation_xyz
  'x, y, z'

loop_
  _atom_site_type_symbol
  _atom_site_label
  _atom_site_symmetry_multiplicity
  _atom_site_fract_x
  _atom_site_fract_y
  _atom_site_fract_z
  _atom_site_occupancy
  C   C1        1.0  0.4430434076411515  0.13425401081953445  0.4036626651858514  1.0000
  C   C2        1.0  0.556956592443025  0.13425401081953445  0.5963373358538424  1.0000
  C   C3        1.0  0.943043407266397  0.6342540106317975  0.4036626643975189  1.0000
  C   C4        1.0  0.056956592868561785  0.6342540106317975  0.5963373336549159  1.0000
  C   C5        1.0  0.556956592443025  0.8657459888049917  0.5963373358538424  1.0000
  C   C6        1.0  0.4430434076411515  0.8657459888049917  0.4036626651858514  1.0000
  C   C7        1.0  0.056956592868561785  0.3657459889927286  0.5963373336549159  1.0000
  C   C8        1.0  0.943043407266397  0.3657459889927286  0.4036626643975189  1.0000
  O   O1        1.0  0.3769054441174089  0.9999999996245261  0.30584471699952515  1.0000
  O   O2        1.0  0.6230945549672539  0.9999999996245261  0.6941552812147732  1.0000
  O   O3        1.0  0.8769054447929505  0.49999999981226306  0.3058447160493291  1.0000
  O   O4        1.0  0.12309455534200832  0.49999999981226306  0.6941552820031056  1.0000
  Cl  Cl1       1.0  0.09836469231596637  0.9999999996245261  0.06770709075338124  1.0000
  Cl  Cl2       1.0  0.9016353077682101  0.9999999996245261  0.9322929102863127  1.0000
  Cl  Cl3       1.0  0.5983646919412119  0.49999999981226306  0.06770708996504876  1.0000
  Cl  Cl4       1.0  0.4016353081429645  0.49999999981226306  0.9322929110746451  1.0000
