data_image0
_chemical_formula_structural       H14C18N2F4S2I2
_chemical_formula_sum              "H14 C18 N2 F4 S2 I2"
_cell_length_a       6.8024066235933125
_cell_length_b       7.687859550006967
_cell_length_c       10.6208148586504
_cell_angle_alpha    79.65905042730301
_cell_angle_beta     78.83996750428108
_cell_angle_gamma    86.11275553063372

_space_group_name_H-M_alt    "P 1"
_space_group_IT_number       1

loop_
  _space_group_symop_operation_xyz
  'x, y, z'

loop_
  _atom_site_type_symbol
  _atom_site_label
  _atom_site_symmetry_multiplicity
  _atom_site_fract_x
  _atom_site_fract_y
  _atom_site_fract_z
  _atom_site_occupancy
  H   H1        1.0  0.32989037140859245  0.634586054495668  0.12232931148300548  1.0000
  H   H2        1.0  0.6701096284113321  0.36541394605384697  0.8776706883847378  1.0000
  H   H3        1.0  0.36882214240818784  0.3342196125706399  0.06259818888984629  1.0000
  H   H4        1.0  0.6311778574117368  0.665780387978875  0.9374018109778972  1.0000
  H   H5        1.0  0.354170184584606  0.06634901128859408  0.23287711494403518  1.0000
  H   H6        1.0  0.6458298152353187  0.9336509892609207  0.7671228849237083  1.0000
  H   H7        1.0  0.29885937167939153  0.09247494116350817  0.46826284143004376  1.0000
  H   H8        1.0  0.701140628140533  0.9075250593860067  0.5317371584376998  1.0000
  H   H9        1.0  0.03836794313439799  0.6352730588886133  0.7281906287843949  1.0000
  H   H10       1.0  0.9616320567839631  0.3647269403553849  0.271809371091175  1.0000
  H   H11       1.0  0.29495385733271673  0.6083720883286489  0.7408504044506637  1.0000
  H   H12       1.0  0.705046142487208  0.391627912220866  0.2591495954170797  1.0000
  H   H13       1.0  0.20483673844868236  0.8083298063255485  0.654096767194135  1.0000
  H   H14       1.0  0.7951632613712424  0.19167019422396633  0.3459032326736084  1.0000
  C   C1        1.0  0.10267396246306625  0.9787745569880885  0.9588484188546744  1.0000
  C   C2        1.0  0.8973260374552948  0.02122544225591005  0.041151581020895375  1.0000
  C   C3        1.0  0.29378216691741244  0.5312502614981908  0.3294503985022841  1.0000
  C   C4        1.0  0.7062178330009488  0.4687497377458075  0.6705496013732857  1.0000
  C   C5        1.0  0.3251145096779582  0.5175146761203365  0.19741253753788832  1.0000
  C   C6        1.0  0.6748854902404029  0.48248532312366194  0.8025874623376815  1.0000
  C   C7        1.0  0.3468249531625095  0.3486107715120889  0.1646708997191781  1.0000
  C   C8        1.0  0.6531750466574151  0.6513892290374259  0.8353291001485654  1.0000
  C   C9        1.0  0.33761543833476093  0.19655823460507385  0.26133603105181785  1.0000
  C   C10       1.0  0.6623845614851638  0.803441765944441  0.7386639688159256  1.0000
  C   C11       1.0  0.3066162182648944  0.20965280418040852  0.39268772501124916  1.0000
  C   C12       1.0  0.6933837816534667  0.7903471950635897  0.6073122748643207  1.0000
  C   C13       1.0  0.2841342999170417  0.37816789089765684  0.42776048088657753  1.0000
  C   C14       1.0  0.7158656999028831  0.621832109651858  0.572239518981166  1.0000
  C   C15       1.0  0.23355644459496555  0.5846886044653627  0.5555367662466306  1.0000
  C   C16       1.0  0.7664435553233955  0.4153113947786355  0.4444632336289394  1.0000
  C   C17       1.0  0.1913317441451688  0.6645215038726491  0.6756235188240247  1.0000
  C   C18       1.0  0.8086682554969575  0.3354784951569478  0.3243764820253804  1.0000
  N   N1        1.0  0.2508179763506106  0.4144207767447394  0.553328213293916  1.0000
  N   N2        1.0  0.7491820235677505  0.5855792224992589  0.4466717865816539  1.0000
  F   F1        1.0  0.09988768365931927  0.8118678362002771  0.9304627300220552  1.0000
  F   F2        1.0  0.9001123162590419  0.18813216304372116  0.06953726985351459  1.0000
  F   F3        1.0  0.24848209577617925  0.9754290369328387  0.03328980415199284  1.0000
  F   F4        1.0  0.7515179040437453  0.024570963616676194  0.9667101957157507  1.0000
  S   S1        1.0  0.25840753748145606  0.71758005265434  0.40247678317703667  1.0000
  S   S2        1.0  0.7415924623384685  0.2824199478951749  0.5975232166907068  1.0000
  I   I1        1.0  0.17880986129846593  0.17184315674238076  0.7783958760787469  1.0000
  I   I2        1.0  0.8211901399917815  0.8281568438080604  0.22160412378791453  1.0000
