data_image0
_chemical_formula_structural       H4C6N2F4I2
_chemical_formula_sum              "H4 C6 N2 F4 I2"
_cell_length_a       6.211569207115684
_cell_length_b       6.499121701602011
_cell_length_c       7.404703636166618
_cell_angle_alpha    106.61382369107857
_cell_angle_beta     107.44686519587478
_cell_angle_gamma    95.31705025795857

_space_group_name_H-M_alt    "P 1"
_space_group_IT_number       1

loop_
  _space_group_symop_operation_xyz
  'x, y, z'

loop_
  _atom_site_type_symbol
  _atom_site_label
  _atom_site_symmetry_multiplicity
  _atom_site_fract_x
  _atom_site_fract_y
  _atom_site_fract_z
  _atom_site_occupancy
  H   H1        1.0  0.3747641432038535  0.8370216652486077  0.47318579997913124  1.0000
  H   H2        1.0  0.6252358567868006  0.1629783353412181  0.526814200855196  1.0000
  H   H3        1.0  0.7574798965356467  0.36433627543473146  0.323628163148915  1.0000
  H   H4        1.0  0.24252010287034217  0.6356637246122784  0.6763718361856528  1.0000
  C   C1        1.0  0.011367494767112124  0.8873527512610702  0.012414644678425022  1.0000
  C   C2        1.0  0.988632505223542  0.11264724932875547  0.9875853561559021  1.0000
  C   C3        1.0  0.43278160998597504  0.6865886533675345  0.48540848907661754  1.0000
  C   C4        1.0  0.5672183910331487  0.3134113467006448  0.5145915102616458  1.0000
  C   C5        1.0  0.6418797976165196  0.42555209636869873  0.40272721020841074  1.0000
  C   C6        1.0  0.35812020178946935  0.5744479036783112  0.5972727891261571  1.0000
  N   N1        1.0  0.5750126522246395  0.6120991418253644  0.3883713709923472  1.0000
  N   N2        1.0  0.4249873477660146  0.38790085876446134  0.61162862984198  1.0000
  F   F1        1.0  0.23832774793545547  0.8920652240027251  0.11143706934946505  1.0000
  F   F2        1.0  0.7616722536683337  0.10793477660827015  0.8885629314885578  1.0000
  F   F3        1.0  0.9508250478612305  0.7335587166485525  0.8249111875676137  1.0000
  F   F4        1.0  0.04917495212942351  0.2664412839412731  0.17508881326671338  1.0000
  I   I1        1.0  0.7999236371636935  0.7883092282427022  0.1742851021641555  1.0000
  I   I2        1.0  0.20007636224229547  0.21169077180430776  0.8257148971704124  1.0000
