data_image0
_chemical_formula_structural       H60B2C36O14F8I2
_chemical_formula_sum              "H60 B2 C36 O14 F8 I2"
_cell_length_a       9.4034331115794
_cell_length_b       11.401426927436532
_cell_length_c       13.174837930489383
_cell_angle_alpha    120.33779894586037
_cell_angle_beta     112.3405775017021
_cell_angle_gamma    83.638502844933

_space_group_name_H-M_alt    "P 1"
_space_group_IT_number       1

loop_
  _space_group_symop_operation_xyz
  'x, y, z'

loop_
  _atom_site_type_symbol
  _atom_site_label
  _atom_site_symmetry_multiplicity
  _atom_site_fract_x
  _atom_site_fract_y
  _atom_site_fract_z
  _atom_site_occupancy
  H   H1        1.0  0.32057994834154535  0.6845746279236754  0.0554663918341805  1.0000
  H   H2        1.0  0.6794200520966672  0.31542537139734145  0.9445336077040845  1.0000
  H   H3        1.0  0.14384260230087675  0.6247961119950323  0.1595651747625918  1.0000
  H   H4        1.0  0.8561573984577263  0.37520388871863236  0.8404348257365248  1.0000
  H   H5        1.0  0.9317729756411269  0.48657791174440795  0.13477815546620783  1.0000
  H   H6        1.0  0.06822702405376213  0.5134220889662312  0.865221845031625  1.0000
  H   H7        1.0  0.9887943458226307  0.2771810539566803  0.15270672057841567  1.0000
  H   H8        1.0  0.011205654499274608  0.7228189462527626  0.8472932789708739  1.0000
  H   H9        1.0  0.25212920865555893  0.20158976224336717  0.18634170130728855  1.0000
  H   H10       1.0  0.7478707921030443  0.7984102384702974  0.8136582991918281  1.0000
  H   H11       1.0  0.4638223629546912  0.3376334308770873  0.20976955783620505  1.0000
  H   H12       1.0  0.5361776374835213  0.6623665684439296  0.79023044170206  1.0000
  H   H13       1.0  0.8777107334472631  0.5131817982797569  0.44955722002182286  1.0000
  H   H14       1.0  0.12228926581092829  0.48681820192666075  0.5504427795261831  1.0000
  H   H15       1.0  0.7899542211633673  0.44534812166426685  0.28272027127388566  1.0000
  H   H16       1.0  0.21004577864782906  0.5546518781579463  0.7172797292129226  1.0000
  H   H17       1.0  0.012604925790495158  0.6308631897488562  0.39800613914236227  1.0000
  H   H18       1.0  0.9873950735840036  0.36913680956913514  0.6019938603946189  1.0000
  H   H19       1.0  0.8993551487651137  0.7510898745760398  0.47594553678309187  1.0000
  H   H20       1.0  0.10064485092977522  0.2489101261345995  0.5240544637147411  1.0000
  H   H21       1.0  0.8724966444818908  0.8732909071782674  0.3659132797834484  1.0000
  H   H22       1.0  0.12750335639301957  0.12670909264697106  0.6340867207046436  1.0000
  H   H23       1.0  0.9901722107656025  0.7636429563430925  0.2834671961094423  1.0000
  H   H24       1.0  0.00982778904559404  0.23635704347912057  0.7165328043773659  1.0000
  H   H25       1.0  0.7572469164042318  0.6786226641599052  0.0778397829784517  1.0000
  H   H26       1.0  0.24275308391767364  0.3213773360495376  0.9221602165708379  1.0000
  H   H27       1.0  0.8238789555030739  0.856139163919849  0.15736722621087676  1.0000
  H   H28       1.0  0.17612104387142474  0.1438608353981423  0.8426327733261044  1.0000
  H   H29       1.0  0.601911511489995  0.9203192924133523  0.07286881307577513  1.0000
  H   H30       1.0  0.3980884877681964  0.0796807077930651  0.9271311864722307  1.0000
  H   H31       1.0  0.4854266416026498  0.7601191328433986  0.9805364206140206  1.0000
  H   H32       1.0  0.5145733592722604  0.23988086698183989  0.019463579874071487  1.0000
  H   H33       1.0  0.3434419158024018  0.9720049289058639  0.04774292351848455  1.0000
  H   H34       1.0  0.656558083572097  0.027995070412127458  0.9522570760184966  1.0000
  H   H35       1.0  0.4451738180130143  0.010883741990550472  0.2099069666070655  1.0000
  H   H36       1.0  0.5548261823088911  0.9891162582188924  0.7900930329422242  1.0000
  H   H37       1.0  0.11900870457103639  0.9742142704682285  0.09953913400351656  1.0000
  H   H38       1.0  0.8809912957508691  0.02578572974121455  0.9004608655457732  1.0000
  H   H39       1.0  0.07046616011025898  0.8188705742930221  0.08496218083944658  1.0000
  H   H40       1.0  0.9295338397009375  0.18112942552919103  0.9150378196473617  1.0000
  H   H41       1.0  0.11428503926968661  0.028655662939626687  0.29894318895415517  1.0000
  H   H42       1.0  0.8857149614889165  0.971344337774038  0.7010568115449615  1.0000
  H   H43       1.0  0.314231737006475  0.04403460104582733  0.3258456270983222  1.0000
  H   H44       1.0  0.6857682622517165  0.9559653991605903  0.6741543724496838  1.0000
  H   H45       1.0  0.37325519343667923  0.014098392811486548  0.49979042167485516  1.0000
  H   H46       1.0  0.626744807321924  0.9859016079021781  0.5002095788242616  1.0000
  H   H47       1.0  0.17645441395754774  0.9797837916924894  0.4697282329987688  1.0000
  H   H48       1.0  0.8235455853006436  0.020216208513928156  0.530271766549237  1.0000
  H   H49       1.0  0.23003954313531816  0.7374847393975056  0.42204779834224543  1.0000
  H   H50       1.0  0.769960456559571  0.2625152613131338  0.5779522021555875  1.0000
  H   H51       1.0  0.321899070122178  0.8700674723849197  0.5825926878706071  1.0000
  H   H52       1.0  0.6781009292523207  0.12993252693307178  0.41740731166637407  1.0000
  H   H53       1.0  0.5124844696075388  0.7163228522283585  0.6099432325013098  1.0000
  H   H54       1.0  0.48751553115106433  0.2836771484853062  0.3900567679978068  1.0000
  H   H55       1.0  0.42123242966859203  0.5890271854622682  0.4471777839215603  1.0000
  H   H56       1.0  0.5787675700262972  0.41097281524837104  0.5528222165762726  1.0000
  H   H57       1.0  0.707455277647644  0.5752032458140833  0.5517654568809274  1.0000
  H   H58       1.0  0.2925447216105474  0.4247967543923343  0.4482345426670785  1.0000
  H   H59       1.0  0.7479999552476334  0.7327772948889595  0.5659065955594602  1.0000
  H   H60       1.0  0.252000045074272  0.26722270532048353  0.4340934039898295  1.0000
  B   B1        1.0  0.8404062459134696  0.1587412595805529  0.2578695809632704  1.0000
  B   B2        1.0  0.15959375389772673  0.8412587402416603  0.7421304195235379  1.0000
  C   C1        1.0  0.3134145878346672  0.48809339267949703  0.18586377370283505  1.0000
  C   C2        1.0  0.6865854129239359  0.5119066080341675  0.8141362267962816  1.0000
  C   C3        1.0  0.16594498605940392  0.5318106904814496  0.1648282081909122  1.0000
  C   C4        1.0  0.8340550136354852  0.46818931022918964  0.8351717923069206  1.0000
  C   C5        1.0  0.048082846533949494  0.4542291209425069  0.1514708815578495  1.0000
  C   C6        1.0  0.9519171528405492  0.5457708783754845  0.8485291179791318  1.0000
  C   C7        1.0  0.07975232749391326  0.33643160058520283  0.16074632834721692  1.0000
  C   C8        1.0  0.9202476718805854  0.6635683987327886  0.8392536711897643  1.0000
  C   C9        1.0  0.22859680622782977  0.2948075195439164  0.18150202331513526  1.0000
  C   C10       1.0  0.7714031930303616  0.7051924806625013  0.8184979762328707  1.0000
  C   C11       1.0  0.34777906283511295  0.370143504192818  0.19402141908823226  1.0000
  C   C12       1.0  0.6522209364230785  0.6298564960135996  0.8059785804597738  1.0000
  C   C13       1.0  0.8093761832446978  0.5373508787791477  0.3751795967649902  1.0000
  C   C14       1.0  0.19062381751390534  0.4626491219345169  0.6248204037341265  1.0000
  C   C15       1.0  0.8926589787027387  0.6539176941269821  0.38954264485464196  1.0000
  C   C16       1.0  0.10734102110845764  0.346082305695231  0.6104573556321662  1.0000
  C   C17       1.0  0.8710506970880257  0.7762439290190375  0.28094077573965837  1.0000
  C   C18       1.0  0.12894930217016579  0.22375607118738017  0.7190592238083476  1.0000
  C   C19       1.0  0.7696915341895462  0.7796231286850382  0.16260292212560898  1.0000
  C   C20       1.0  0.230308466569057  0.22037687202862627  0.8373970783735077  1.0000
  C   C21       1.0  0.5304015027840912  0.8523797436927691  0.0756055727675732  1.0000
  C   C22       1.0  0.4695984980908191  0.14762025613246926  0.9243944277205187  1.0000
  C   C23       1.0  0.39921947484600784  0.9284958409771  0.10967108676685883  1.0000
  C   C24       1.0  0.6007805249651883  0.07150415884511313  0.8903289137199494  1.0000
  C   C25       1.0  0.1634944605956271  0.9009151035261084  0.13262758527561241  1.0000
  C   C26       1.0  0.8365055402792831  0.09908489629912996  0.8673724152124795  1.0000
  C   C27       1.0  0.21005192059237107  0.9710307732210834  0.27471563210724925  1.0000
  C   C28       1.0  0.7899480797295344  0.028969226988359385  0.7252843674420404  1.0000
  C   C29       1.0  0.2771215379308664  0.9325223750772398  0.44629003355536767  1.0000
  C   C30       1.0  0.722878461327325  0.06747762512917777  0.5537099659926381  1.0000
  C   C31       1.0  0.3188492282055271  0.8262791530217277  0.48553907531738183  1.0000
  C   C32       1.0  0.6811507721163784  0.17372084718771513  0.5144609242319079  1.0000
  C   C33       1.0  0.5078087630549796  0.6793605594478788  0.5132380281892931  1.0000
  C   C34       1.0  0.49219123620321176  0.3206394407585388  0.4867619713587128  1.0000
  C   C35       1.0  0.6649010039390856  0.6412145364511376  0.509956058767403  1.0000
  C   C36       1.0  0.33509899649912706  0.3587854628698793  0.49004394077086194  1.0000
  O   O1        1.0  0.3474271366292685  0.5876316319376764  0.031014612718209447  1.0000
  O   O2        1.0  0.6525728627452301  0.41236836738031507  0.9689853868187718  1.0000
  O   O3        1.0  0.6576513682786064  0.5663384904517367  0.38085655480956754  1.0000
  O   O4        1.0  0.3423486309795851  0.4336615097546808  0.6191434447384384  1.0000
  O   O5        1.0  0.8121377625661056  0.6640282862575041  0.2785002421691982  1.0000
  O   O6        1.0  0.18786223775579994  0.3359717139519388  0.7214997573800914  1.0000
  O   O7        1.0  0.6217037214062793  0.8172626777656078  0.16969533997031064  1.0000
  O   O8        1.0  0.37829627840491703  0.18273732205660514  0.8303046605164975  1.0000
  O   O9        1.0  0.2858544313707487  0.836371471692011  0.0900415631002497  1.0000
  O   O10       1.0  0.7141455684404476  0.16362852813020207  0.9099584373865585  1.0000
  O   O11       1.0  0.23947400345010347  0.8706720796998052  0.31284378502913135  1.0000
  O   O12       1.0  0.7605259969881092  0.12932791962121165  0.6871562145091336  1.0000
  O   O13       1.0  0.4657903512728881  0.7825975164966669  0.4799046822864643  1.0000
  O   O14       1.0  0.5342096491653245  0.21740248282435007  0.5200953172518007  1.0000
  F   F1        1.0  0.8502054399767275  0.06312413549138854  0.138447036929351  1.0000
  F   F2        1.0  0.14979455939777112  0.9368758638266029  0.8615529626076303  1.0000
  F   F3        1.0  0.9556343996184944  0.26980801081548267  0.32314348726509845  1.0000
  F   F4        1.0  0.04436560081971827  0.7301919885055342  0.6768565122731666  1.0000
  F   F5        1.0  0.691478015304861  0.2056590539248593  0.23828716376573356  1.0000
  F   F6        1.0  0.30852198501704436  0.7943409462845836  0.7617128357835561  1.0000
  F   F7        1.0  0.8673298374563693  0.09471486224590542  0.3311293280395977  1.0000
  F   F8        1.0  0.13267016330223386  0.9052851384677593  0.668870672459519  1.0000
  I   I1        1.0  0.4857701643275975  0.5975602322650939  0.1909494447290765  1.0000
  I   I2        1.0  0.5142298361106151  0.40243976705592277  0.8090505548091884  1.0000
