data_image0
_chemical_formula_structural       H10C20N4S8
_chemical_formula_sum              "H10 C20 N4 S8"
_cell_length_a       6.936057233606714
_cell_length_b       7.6095170669220655
_cell_length_c       11.122690331545938
_cell_angle_alpha    106.80361265656384
_cell_angle_beta     89.15671027360482
_cell_angle_gamma    97.51785630895252

_space_group_name_H-M_alt    "P 1"
_space_group_IT_number       1

loop_
  _space_group_symop_operation_xyz
  'x, y, z'

loop_
  _atom_site_type_symbol
  _atom_site_label
  _atom_site_symmetry_multiplicity
  _atom_site_fract_x
  _atom_site_fract_y
  _atom_site_fract_z
  _atom_site_occupancy
  H   H1        1.0  0.2664508803822346  0.03623262124394373  0.39211874228865984  1.0000
  H   H2        1.0  0.7335491198631874  0.9637673788098083  0.6078812580595342  1.0000
  H   H3        1.0  0.4671852279282995  0.184866421522105  0.48219010969239057  1.0000
  H   H4        1.0  0.5328147723171226  0.815133578531647  0.5178098906558034  1.0000
  H   H5        1.0  0.052282486707284304  0.28278841765586143  0.4612258470282712  1.0000
  H   H6        1.0  0.9477175121149534  0.717211582403222  0.5387741524239141  1.0000
  H   H7        1.0  0.2592898347740803  0.35947036021808  0.38384256193929134  1.0000
  H   H8        1.0  0.7407101640481574  0.6405296398410035  0.6161574375128939  1.0000
  H   H9        1.0  0.9630201068174407  0.7206202738045617  0.875687282585024  1.0000
  H   H10       1.0  0.03697989342798132  0.27937972624919016  0.12431271776316993  1.0000
  C   C1        1.0  0.3332505397758377  0.44465644893849726  0.7185442611919268  1.0000
  C   C2        1.0  0.6667494604695844  0.5553435511152548  0.2814557391562671  1.0000
  C   C3        1.0  0.3110001664360292  0.2669123655230124  0.7259730737792528  1.0000
  C   C4        1.0  0.6889998338273389  0.7330876345314035  0.27402692566991366  1.0000
  C   C5        1.0  0.46905537672434233  0.4679028450377258  0.9384690561810872  1.0000
  C   C6        1.0  0.5309446235210797  0.5320971550160263  0.061530944167106603  1.0000
  C   C7        1.0  0.3080649763103302  0.15401085958115748  0.4752314161506251  1.0000
  C   C8        1.0  0.6919350239350919  0.8459891404725945  0.5247685841975689  1.0000
  C   C9        1.0  0.21077735173199008  0.3171104228789579  0.4668751262120041  1.0000
  C   C10       1.0  0.789222648531378  0.682889577175458  0.5331248732371624  1.0000
  C   C11       1.0  0.9503908537232437  0.3083521339210315  0.9464580834163188  1.0000
  C   C12       1.0  0.049609146522178266  0.6916478661327204  0.053541916931875155  1.0000
  C   C13       1.0  0.9304895337573997  0.4334247332912064  0.8744559739376538  1.0000
  C   C14       1.0  0.06951046648802238  0.5665752667625455  0.1255440264105401  1.0000
  C   C15       1.0  0.8554006835186003  0.3670468400004982  0.7494355845644739  1.0000
  C   C16       1.0  0.14459931672682177  0.6329531600532537  0.2505644157837201  1.0000
  C   C17       1.0  0.9815939398568617  0.6243179759928144  0.9292178492520068  1.0000
  C   C18       1.0  0.01840606040650626  0.3756820240616014  0.07078215019715964  1.0000
  C   C19       1.0  0.9043286715666131  0.11489352211609061  0.8892110606024316  1.0000
  C   C20       1.0  0.09567132867880879  0.8851064779376613  0.1107889397457624  1.0000
  N   N1        1.0  0.7908021220461104  0.31273186282330556  0.6467999050072357  1.0000
  N   N2        1.0  0.20919787677612728  0.6872681372357778  0.35320009444494954  1.0000
  N   N3        1.0  0.8684583865302703  0.9568490478522791  0.837338189628045  1.0000
  N   N4        1.0  0.13154161373309783  0.04315095220213682  0.16266180982112152  1.0000
  S   S1        1.0  0.40160314850409057  0.23313512576687223  0.8624555726791612  1.0000
  S   S2        1.0  0.5983968517592775  0.7668648742875436  0.13754442677000522  1.0000
  S   S3        1.0  0.4537328922534982  0.6156406666238325  0.8452609892163909  1.0000
  S   S4        1.0  0.5462671079919238  0.38435933342991935  0.15473901113180302  1.0000
  S   S5        1.0  0.22432825498392606  0.06951745655614923  0.6064096435440542  1.0000
  S   S6        1.0  0.7756717452794419  0.9304825434982666  0.39359035590511227  1.0000
  S   S7        1.0  0.2726265369518113  0.5280335700776398  0.5964884444680025  1.0000
  S   S8        1.0  0.7273734632936106  0.47196642997611205  0.40351155588019133  1.0000
