data_image0
_chemical_formula_structural       H10C12N2O4Cl2
_chemical_formula_sum              "H10 C12 N2 O4 Cl2"
_cell_length_a       5.046860854109495
_cell_length_b       8.031698682010054
_cell_length_c       8.918491697530886
_cell_angle_alpha    113.45391358073104
_cell_angle_beta     101.32704820465305
_cell_angle_gamma    95.2847183765242

_space_group_name_H-M_alt    "P 1"
_space_group_IT_number       1

loop_
  _space_group_symop_operation_xyz
  'x, y, z'

loop_
  _atom_site_type_symbol
  _atom_site_label
  _atom_site_symmetry_multiplicity
  _atom_site_fract_x
  _atom_site_fract_y
  _atom_site_fract_z
  _atom_site_occupancy
  H   H1        1.0  0.5897267224845631  0.29145538088983397  0.0900607459973735  1.0000
  H   H2        1.0  0.41027327690883625  0.7085446195703974  0.9099392540519302  1.0000
  H   H3        1.0  0.574859157180851  0.313782249172744  0.7956370049781571  1.0000
  H   H4        1.0  0.42514084221254844  0.6862177512874873  0.20436299507114652  1.0000
  H   H5        1.0  0.995326748771392  0.6562543182229608  0.41016589686951166  1.0000
  H   H6        1.0  0.004673252603401097  0.34374568224620283  0.5898341031761462  1.0000
  H   H7        1.0  0.2930704426505959  0.556168808084741  0.399039881285333  1.0000
  H   H8        1.0  0.7069295567428034  0.4438311923754903  0.6009601187639706  1.0000
  H   H9        1.0  0.9622111962796872  0.4135177674903936  0.34144475461362683  1.0000
  H   H10       1.0  0.03778880311371219  0.5864822329698377  0.6585552454356768  1.0000
  C   C1        1.0  0.13218548045427858  0.07894052065321716  0.9079437532633786  1.0000
  C   C2        1.0  0.8678145189391209  0.9210594798070143  0.09205624678592506  1.0000
  C   C3        1.0  0.8665658886699804  0.9565404882449402  0.8256129812121965  1.0000
  C   C4        1.0  0.13343411072341893  0.043459512215291034  0.17438701883710714  1.0000
  C   C5        1.0  0.26496761670060476  0.12083755044362156  0.09023350091379197  1.0000
  C   C6        1.0  0.7350323846741882  0.879162450025542  0.9097664991318658  1.0000
  C   C7        1.0  0.03567707582367304  0.5124974755791853  0.159995497507257  1.0000
  C   C8        1.0  0.9643229255511201  0.4875025248899783  0.8400045025384008  1.0000
  C   C9        1.0  0.7659298137914016  0.3981955257776259  0.8864799288848474  1.0000
  C   C10       1.0  0.23407018758339157  0.6018044746915379  0.11352007116081049  1.0000
  C   C11       1.0  0.07439542561039855  0.5340568800686517  0.3370861783140176  1.0000
  C   C12       1.0  0.9256045737830008  0.46594312039157965  0.662913821735286  1.0000
  N   N1        1.0  0.8012469731471692  0.40919896664045124  0.04302026261506282  1.0000
  N   N2        1.0  0.19875302753065474  0.5908010319888235  0.9569797361674055  1.0000
  O   O1        1.0  0.5057131407511352  0.23235430681634625  0.16224091597812443  1.0000
  O   O2        1.0  0.4942868606236579  0.7676456936528174  0.8377590840675334  1.0000
  O   O3        1.0  0.25632548129434135  0.1536663784950771  0.8376633309615278  1.0000
  O   O4        1.0  0.743674518099058  0.8463336219651543  0.16233666908777594  1.0000
  Cl  Cl1       1.0  0.7235988907080729  0.9148503107651498  0.6197017449971243  1.0000
  Cl  Cl2       1.0  0.27640110868532647  0.08514968969508152  0.3802982550521794  1.0000
