data_image0
_chemical_formula_structural       H80C68N4O12
_chemical_formula_sum              "H80 C68 N4 O12"
_cell_length_a       11.1960873276562
_cell_length_b       5.106812565914113
_cell_length_c       26.53600410810208
_cell_angle_alpha    90.0
_cell_angle_beta     101.372444238947
_cell_angle_gamma    90.0

_space_group_name_H-M_alt    "P 1"
_space_group_IT_number       1

loop_
  _space_group_symop_operation_xyz
  'x, y, z'

loop_
  _atom_site_type_symbol
  _atom_site_label
  _atom_site_symmetry_multiplicity
  _atom_site_fract_x
  _atom_site_fract_y
  _atom_site_fract_z
  _atom_site_occupancy
  H   H1        1.0  0.9949296197411805  0.42982325896409573  0.08606602930589637  1.0000
  H   H2        1.0  0.0050703802100307924  0.9298232583850542  0.41393397062216675  1.0000
  H   H3        1.0  0.005070380451729006  0.5701767398778212  0.9139339706031169  1.0000
  H   H4        1.0  0.9949296199828787  0.07017674045686274  0.5860660292868465  1.0000
  H   H5        1.0  0.8102630819862535  0.9567316553991128  0.12061623684931283  1.0000
  H   H6        1.0  0.18973691796495779  0.4567316559781543  0.37938376307875027  1.0000
  H   H7        1.0  0.18973691820665595  0.0432683434428042  0.8793837630597003  1.0000
  H   H8        1.0  0.8102630822279518  0.5432683448219313  0.6206162368302629  1.0000
  H   H9        1.0  0.7188847459059698  0.9399221722054343  0.19825437287955122  1.0000
  H   H10       1.0  0.2811152549577428  0.4399221708263071  0.3017456275006771  1.0000
  H   H11       1.0  0.2811152542883854  0.06007782859465141  0.8017456274064282  1.0000
  H   H12       1.0  0.7188847452366124  0.5600778280156099  0.6982543727853024  1.0000
  H   H13       1.0  0.9225880533250091  0.2366570193052834  0.24677377510510196  1.0000
  H   H14       1.0  0.07741194662620217  0.7366570187262419  0.25322622482296114  1.0000
  H   H15       1.0  0.07741194686790037  0.7633429814948023  0.7532262248039112  1.0000
  H   H16       1.0  0.9225880535667074  0.2633429820738437  0.746773775086052  1.0000
  H   H17       1.0  0.012644107414206476  0.25295532846108487  0.17044081419370083  1.0000
  H   H18       1.0  0.987355893449506  0.752955329840212  0.3295591861865275  1.0000
  H   H19       1.0  0.9873558927801487  0.7470446703808321  0.8295591860922787  1.0000
  H   H20       1.0  0.012644106744849093  0.24704467095987362  0.670440814099452  1.0000
  H   H21       1.0  0.6911876676883606  0.742092967205199  0.2753979323879512  1.0000
  H   H22       1.0  0.30881233317390644  0.24209296778424053  0.2246020676153109  1.0000
  H   H23       1.0  0.30881233250454904  0.2579070335948866  0.7246020675210622  1.0000
  H   H24       1.0  0.6911876670190032  0.757907033015845  0.7753979322937024  1.0000
  H   H25       1.0  0.816418582459419  0.209798412644154  0.30256754400655717  1.0000
  H   H26       1.0  0.1835814174917922  0.7097984120651125  0.19743245592150593  1.0000
  H   H27       1.0  0.1835814168224348  0.7902015881559317  0.6974324558272571  1.0000
  H   H28       1.0  0.8164185827011173  0.2902015887349731  0.8025675439875073  1.0000
  H   H29       1.0  0.5761159393588237  0.6919362350569238  0.3296813042179131  1.0000
  H   H30       1.0  0.42388406059383327  0.19193623563596535  0.17031869608711636  1.0000
  H   H31       1.0  0.4238840608355315  0.3080637637849931  0.6703186960680665  1.0000
  H   H32       1.0  0.5761159386894663  0.8080637632059517  0.8296813041236643  1.0000
  H   H33       1.0  0.5695112582068832  0.3452481048096592  0.47721348993395213  1.0000
  H   H34       1.0  0.4304887417443281  0.8452481061887862  0.02278650999411102  1.0000
  H   H35       1.0  0.4304887419860264  0.6547518940322579  0.5227865099750612  1.0000
  H   H36       1.0  0.5695112584485815  0.15475189461129935  0.9772134899149021  1.0000
  H   H37       1.0  0.8078335307524115  0.03248991183021822  0.381806034808889  1.0000
  H   H38       1.0  0.19216646920024552  0.5324899132093454  0.1181939654961404  1.0000
  H   H39       1.0  0.19216646944194374  0.9675100870116988  0.6181939654770905  1.0000
  H   H40       1.0  0.8078335309941097  0.46751008759074025  0.8818060347898392  1.0000
  H   H41       1.0  0.4873176616148893  0.011184810341629568  0.3648233659693215  1.0000
  H   H42       1.0  0.512682338336322  0.5111848097625881  0.13517663395874158  1.0000
  H   H43       1.0  0.5126823376669647  0.988815190458456  0.6351766338644927  1.0000
  H   H44       1.0  0.48731766185658754  0.4888151890793289  0.8648233659502718  1.0000
  H   H45       1.0  0.3491561450409544  0.9767546792873406  0.38818807009732714  1.0000
  H   H46       1.0  0.650843854910257  0.47675467986638204  0.111811929830736  1.0000
  H   H47       1.0  0.6508438551519552  0.023245321512745033  0.6118119298116862  1.0000
  H   H48       1.0  0.3491561452826526  0.5232453209337036  0.8881880700782773  1.0000
  H   H49       1.0  0.3792064327691107  0.7616642944685308  0.339202696000033  1.0000
  H   H50       1.0  0.6207935671821007  0.26166429308940364  0.16079730392803016  1.0000
  H   H51       1.0  0.6207935674237989  0.23833570633155485  0.6607973039089803  1.0000
  H   H52       1.0  0.37920643301080886  0.7383357057525133  0.8392026959809831  1.0000
  H   H53       1.0  0.7111645763622487  0.14334140142246826  0.5360765846419063  1.0000
  H   H54       1.0  0.2888354231627491  0.6433414028015954  0.9639234155498244  1.0000
  H   H55       1.0  0.2888354238321066  0.8566585974194488  0.46392341564407324  1.0000
  H   H56       1.0  0.7111645761205504  0.35665859799849026  0.03607658466095622  1.0000
  H   H57       1.0  0.7457075784264477  0.8019215855569496  0.5369437950095468  1.0000
  H   H58       1.0  0.2542924210985501  0.3019215861359912  0.963056205182184  1.0000
  H   H59       1.0  0.25429242176646183  0.1980784132849673  0.4630562048994665  1.0000
  H   H60       1.0  0.7457075781847494  0.6980784146640945  0.03694379502859659  1.0000
  H   H61       1.0  0.5972264553941483  0.9155149106521233  0.5057434852879504  1.0000
  H   H62       1.0  0.4027735441294039  0.41551490927299634  0.9942565145268141  1.0000
  H   H63       1.0  0.40277354479876126  0.0844850901479622  0.49425651462106285  1.0000
  H   H64       1.0  0.5972264551524501  0.5844850895689208  0.005743485307000305  1.0000
  H   H65       1.0  0.132156300623578  0.2162480403864842  0.061120340570275045  1.0000
  H   H66       1.0  0.8678436993276334  0.7162480417656113  0.4388796593577881  1.0000
  H   H67       1.0  0.8678436995693317  0.7837519584554328  0.9388796593387382  1.0000
  H   H68       1.0  0.13215630086527622  0.2837519590344743  0.5611203405512252  1.0000
  H   H69       1.0  0.048391649405594636  0.012194810206207865  0.08760406052542183  1.0000
  H   H70       1.0  0.9516083505456168  0.5121948096271663  0.4123959394026413  1.0000
  H   H71       1.0  0.9516083507873149  0.9878051905938777  0.9123959393835913  1.0000
  H   H72       1.0  0.04839164964729285  0.48780518921475063  0.5876040605063719  1.0000
  H   H73       1.0  0.9632473103877734  0.2869428084713154  0.9894634602537903  1.0000
  H   H74       1.0  0.03675268913722451  0.7869428078922739  0.5105365399379405  1.0000
  H   H75       1.0  0.03675268980658188  0.7130571923287703  0.010536540032189316  1.0000
  H   H76       1.0  0.9632473101446294  0.21305719290781172  0.4894634598958738  1.0000
  H   H77       1.0  0.8803363049707986  0.05408670211309364  0.01808953464679589  1.0000
  H   H78       1.0  0.1196636949804128  0.5540867015340522  0.48191046528126724  1.0000
  H   H79       1.0  0.119663695222111  0.945913298686992  0.9819104652622174  1.0000
  H   H80       1.0  0.8803363052139423  0.4459132973078649  0.5180895350047123  1.0000
  C   C1        1.0  0.9142593197200498  0.6014948914519571  0.13878454114826339  1.0000
  C   C2        1.0  0.08574068023260703  0.10149489203099865  0.361215459156766  1.0000
  C   C3        1.0  0.08574068047430525  0.3985051073899599  0.8612154591377161  1.0000
  C   C4        1.0  0.9142593190506926  0.898505108769087  0.6387845410540145  1.0000
  C   C5        1.0  0.8334030984121589  0.7977419921756564  0.14822904373833323  1.0000
  C   C6        1.0  0.16659690153905257  0.2977419907965293  0.3517709561897299  1.0000
  C   C7        1.0  0.16659690178075076  0.2022580086244292  0.8517709561706801  1.0000
  C   C8        1.0  0.8334030986538569  0.7022580080453877  0.6482290437192835  1.0000
  C   C9        1.0  0.7826643760101581  0.7875114345968023  0.19193434689810732  1.0000
  C   C10       1.0  0.21733562394105313  0.28751143517584377  0.3080656530299558  1.0000
  C   C11       1.0  0.21733562327169575  0.2124885662032833  0.808065652935707  1.0000
  C   C12       1.0  0.7826643762518564  0.7124885656242418  0.6919343468790574  1.0000
  C   C13       1.0  0.8094062350754628  0.5827267559931136  0.22794204332112727  1.0000
  C   C14       1.0  0.19059376487719418  0.08272675657215518  0.2720579569839021  1.0000
  C   C15       1.0  0.19059376511889237  0.41727324284880335  0.7720579569648522  1.0000
  C   C16       1.0  0.809406235317161  0.9172732422697619  0.7279420433020775  1.0000
  C   C17       1.0  0.8948522751714026  0.3936294281519569  0.2191445054855246  1.0000
  C   C18       1.0  0.10514772477980876  0.893629429531084  0.2808554944425385  1.0000
  C   C19       1.0  0.10514772502150697  0.60637057068996  0.7808554944234886  1.0000
  C   C20       1.0  0.8948522754131006  0.10637057126900158  0.7191445054664747  1.0000
  C   C21       1.0  0.9465848203705358  0.40204827443720415  0.1757933035950897  1.0000
  C   C22       1.0  0.05341517958067561  0.9020482738581627  0.3242066963329734  1.0000
  C   C23       1.0  0.053415179822373815  0.5979517263628814  0.8242066963139236  1.0000
  C   C24       1.0  0.9465848206136797  0.09795172694192295  0.6757933039530061  1.0000
  C   C25       1.0  0.748682021943406  0.5728908614205842  0.2715107459279065  1.0000
  C   C26       1.0  0.251317978009251  0.07289086199962569  0.2284892543771229  1.0000
  C   C27       1.0  0.25131797733989364  0.4271091393795014  0.7284892542828741  1.0000
  C   C28       1.0  0.7486820221851042  0.9271091388004599  0.7715107459088566  1.0000
  C   C29       1.0  0.7574928419818727  0.3763453808405004  0.3063079918344115  1.0000
  C   C30       1.0  0.24250715797078434  0.8763453802614589  0.1936920084706179  1.0000
  C   C31       1.0  0.24250715821248256  0.6236546180014166  0.6936920084515681  1.0000
  C   C32       1.0  0.7574928422235707  0.12365461858045806  0.8063079918153616  1.0000
  C   C33       1.0  0.699851417551291  0.36621103004301114  0.35090294835038127  1.0000
  C   C34       1.0  0.30014858239992037  0.8662110294639697  0.14909705157768188  1.0000
  C   C35       1.0  0.30014858264161864  0.6337889707570744  0.649097051558632  1.0000
  C   C36       1.0  0.6998514168819336  0.13378896937794735  0.8509029482561324  1.0000
  C   C37       1.0  0.6090702698297404  0.5451532524577135  0.3587167985217315  1.0000
  C   C38       1.0  0.3909297301229165  0.045153253036755  0.1412832017832979  1.0000
  C   C39       1.0  0.3909297303646147  0.4548467463842035  0.6412832017642479  1.0000
  C   C40       1.0  0.6090702700714387  0.9548467477633306  0.8587167985026817  1.0000
  C   C41       1.0  0.5633994943108467  0.5323604704323748  0.403844698870489  1.0000
  C   C42       1.0  0.4366005056418103  0.03236047101141627  0.09615530143454042  1.0000
  C   C43       1.0  0.43660050588350857  0.46763953036771083  0.5961553014154906  1.0000
  C   C44       1.0  0.5633994945525449  0.9676395297886693  0.9038446988514391  1.0000
  C   C45       1.0  0.6068378688034654  0.346715102061527  0.442352791247767  1.0000
  C   C46       1.0  0.393162131147746  0.846715103440654  0.057647208680296144  1.0000
  C   C47       1.0  0.3931621313908899  0.65328489678039  0.5576472090382126  1.0000
  C   C48       1.0  0.6068378681341079  0.15328489735943154  0.9423527911535181  1.0000
  C   C49       1.0  0.6941526026951156  0.16664536616837186  0.43362194600878434  1.0000
  C   C50       1.0  0.3058473972560957  0.6666453655893304  0.06637805391927878  1.0000
  C   C51       1.0  0.30584739749779394  0.8333546346317138  0.5663780539002289  1.0000
  C   C52       1.0  0.6941526029382594  0.33335463325258663  0.9336219463667008  1.0000
  C   C53       1.0  0.7392765234095636  0.1733757992039238  0.38795585238282965  1.0000
  C   C54       1.0  0.26072347654164757  0.6733757986248823  0.11204414754523348  1.0000
  C   C55       1.0  0.2607234767847914  0.8266242015961619  0.6120441479031499  1.0000
  C   C56       1.0  0.7392765227402064  0.3266242021752033  0.8879558522885808  1.0000
  C   C57       1.0  0.4203957739493834  0.8706410863160662  0.3740067532760606  1.0000
  C   C58       1.0  0.5796042260018279  0.3706410868951076  0.12599324665200254  1.0000
  C   C59       1.0  0.5796042262435263  0.1293589125258509  0.6259932466329527  1.0000
  C   C60       1.0  0.4203957741910816  0.6293589139049781  0.8740067532570107  1.0000
  C   C61       1.0  0.6952790226576969  0.9592366092886256  0.5142474053627437  1.0000
  C   C62       1.0  0.30472097686730076  0.45923660986766723  0.9857525948289869  1.0000
  C   C63       1.0  0.3047209775366582  0.040763389553291285  0.4857525949232358  1.0000
  C   C64       1.0  0.6952790224159988  0.5407633909324184  0.014247405381793627  1.0000
  C   C65       1.0  0.9725021167580915  0.11029511710680492  0.013497801649733195  1.0000
  C   C66       1.0  0.027497883193119837  0.6102951165277635  0.48650219827832997  1.0000
  C   C67       1.0  0.027497883434818047  0.8897048836932807  0.9865021982592801  1.0000
  C   C68       1.0  0.9725021169997898  0.3897048842723222  0.5134978016306834  1.0000
  N   N1        1.0  0.04454056200762831  0.17459933539589317  0.06462681699197809  1.0000
  N   N2        1.0  0.955459437943583  0.6745993348168516  0.435373182936085  1.0000
  N   N3        1.0  0.9554594381852812  0.8254006654041923  0.9353731829170352  1.0000
  N   N4        1.0  0.04454056225077215  0.3254006659832339  0.5646268173498945  1.0000
  O   O1        1.0  0.9587064073738428  0.612565254671736  0.09507848393371872  1.0000
  O   O2        1.0  0.04129359257736858  0.11256525329260889  0.4049215159943444  1.0000
  O   O3        1.0  0.04129359281906679  0.3874347461283496  0.9049215159752946  1.0000
  O   O4        1.0  0.9587064076155409  0.8874347455493081  0.5950784839146689  1.0000
  O   O5        1.0  0.4742999493257679  0.6954668404526151  0.4142879625180376  1.0000
  O   O6        1.0  0.5257000506254434  0.19546684103165657  0.08571203741002552  1.0000
  O   O7        1.0  0.5257000508671417  0.3045331603474706  0.5857120373909757  1.0000
  O   O8        1.0  0.4742999495674662  0.804533159768429  0.9142879624989878  1.0000
  O   O9        1.0  0.741560042111922  0.974826744812965  0.46790206365116316  1.0000
  O   O10       1.0  0.25843995783928947  0.47482674539200653  0.032097936276899955  1.0000
  O   O11       1.0  0.2584399580809877  0.025173254028951975  0.5320979362578501  1.0000
  O   O12       1.0  0.7415600423550657  0.5251732534499104  0.9679020640090795  1.0000
