data_image0
_chemical_formula_structural       H22C34N4O8
_chemical_formula_sum              "H22 C34 N4 O8"
_cell_length_a       6.960665774843483
_cell_length_b       7.094946962298231
_cell_length_c       13.834781162623294
_cell_angle_alpha    92.13012441765376
_cell_angle_beta     103.11672298752701
_cell_angle_gamma    105.38103937239357

_space_group_name_H-M_alt    "P 1"
_space_group_IT_number       1

loop_
  _space_group_symop_operation_xyz
  'x, y, z'

loop_
  _atom_site_type_symbol
  _atom_site_label
  _atom_site_symmetry_multiplicity
  _atom_site_fract_x
  _atom_site_fract_y
  _atom_site_fract_z
  _atom_site_occupancy
  H   H1        1.0  0.8045452336588156  0.3864700080041432  0.7644195988568911  1.0000
  H   H2        1.0  0.19545476592098943  0.6135299912903139  0.2355804008740694  1.0000
  H   H3        1.0  0.44973075498933146  0.3660485451426243  0.672450019153799  1.0000
  H   H4        1.0  0.550269244604193  0.6339514541731339  0.3275499813018647  1.0000
  H   H5        1.0  0.16450870214193353  0.27792554053820084  0.7619512894010845  1.0000
  H   H6        1.0  0.8354912974378713  0.7220744587562562  0.23804871032987607  1.0000
  H   H7        1.0  0.06124857573820008  0.20093472928465597  0.9201258776101172  1.0000
  H   H8        1.0  0.9387514238416048  0.7990652700098011  0.07987412212084342  1.0000
  H   H9        1.0  0.1534182966250814  0.12376020653125394  0.0963699335487283  1.0000
  H   H10       1.0  0.8465817033941366  0.8762397942327629  0.9036300662499218  1.0000
  H   H11       1.0  0.7417452370121121  0.14141941409601055  0.32762502714009123  1.0000
  H   H12       1.0  0.2582547625676929  0.8585805851984466  0.6723749725908693  1.0000
  H   H13       1.0  0.041236800563141184  0.2706662514361778  0.2514902594482575  1.0000
  H   H14       1.0  0.9587631994697965  0.7293337493491403  0.7485097410750958  1.0000
  H   H15       1.0  0.964223353739563  0.3459148431850724  0.07071384968601187  1.0000
  H   H16       1.0  0.03577664584024182  0.6540851561093848  0.9292861500449487  1.0000
  H   H17       1.0  0.932612280441329  0.2734005035350585  0.5913510280641293  1.0000
  H   H18       1.0  0.06738771957788908  0.7265994972289584  0.4086489717345208  1.0000
  H   H19       1.0  0.3522935463151969  0.6552595096249245  0.5630599889269842  1.0000
  H   H20       1.0  0.6477064532646081  0.3447404896695328  0.4369400108039763  1.0000
  H   H21       1.0  0.4008617809812306  0.09714656755978938  0.23850169855610082  1.0000
  H   H22       1.0  0.5991382190379876  0.9028534332042275  0.7614983012425494  1.0000
  C   C1        1.0  0.6819644302234062  0.3547944891045737  0.8037339728529145  1.0000
  C   C2        1.0  0.31803556979581205  0.6452055116594434  0.19626602694573564  1.0000
  C   C3        1.0  0.47961574450664224  0.34071848800404797  0.7507196274872245  1.0000
  C   C4        1.0  0.5203842550731628  0.6592815112904091  0.24928037224373603  1.0000
  C   C5        1.0  0.32449497858250875  0.29517312859240086  0.8001946007402265  1.0000
  C   C6        1.0  0.6755050214367094  0.7048268721716161  0.19980539905842362  1.0000
  C   C7        1.0  0.2200623167604964  0.20999103897306506  0.9573527957344393  1.0000
  C   C8        1.0  0.7799376828330281  0.7900089603426931  0.0426472047212245  1.0000
  C   C9        1.0  0.26954472682122216  0.1703935272250197  0.05444693791393207  1.0000
  C   C10       1.0  0.7304552731979961  0.8296064735389973  0.945553061884718  1.0000
  C   C11       1.0  0.7217407102415436  0.17800864381311232  0.2508875116852944  1.0000
  C   C12       1.0  0.2782592893519808  0.8219913555026458  0.7491124887703694  1.0000
  C   C13       1.0  0.8853195097740748  0.24900396820957504  0.2069206687125356  1.0000
  C   C14       1.0  0.11468048980573002  0.7509960310848821  0.793079331018425  1.0000
  C   C15       1.0  0.8424732897706282  0.28769546262164625  0.1081220048671891  1.0000
  C   C16       1.0  0.15752671173525684  0.712304538156372  0.8918779958206016  1.0000
  C   C17       1.0  0.6379927068065852  0.25606794923236703  0.053586585977315845  1.0000
  C   C18       1.0  0.362007293212633  0.74393205153165  0.9464134138213341  1.0000
  C   C19       1.0  0.5838254365811085  0.28655904738424187  0.9493567958824382  1.0000
  C   C20       1.0  0.41617456301241595  0.7134409519315164  0.050643204573225596  1.0000
  C   C21       1.0  0.3736313150349308  0.26483894317286666  0.9022278847040477  1.0000
  C   C22       1.0  0.6263686849842873  0.7351610575911502  0.09777211509460243  1.0000
  C   C23       1.0  0.47866074421973465  0.19218554886670777  0.10319738157408039  1.0000
  C   C24       1.0  0.5213392557994835  0.8078144518973092  0.8968026182245697  1.0000
  C   C25       1.0  0.10428962437481856  0.19477056033320955  0.49252411456175915  1.0000
  C   C26       1.0  0.8957103756581192  0.8052294404521085  0.5074758859615942  1.0000
  C   C27       1.0  0.1412601525867604  0.0403411676502377  0.43956797937771547  1.0000
  C   C28       1.0  0.8587398469930445  0.9596588316442194  0.5604320203532451  1.0000
  C   C29       1.0  0.9646573012835222  0.15301215009956315  0.5527370737191775  1.0000
  C   C30       1.0  0.035342698296282636  0.8469878491948939  0.4472629260117832  1.0000
  C   C31       1.0  0.20965560396182586  0.4030510281576525  0.48213011259734495  1.0000
  C   C32       1.0  0.7903443960711118  0.5969489726276657  0.5178698879260084  1.0000
  C   C33       1.0  0.3009506891606478  0.07859126048180586  0.3796493021652812  1.0000
  C   C34       1.0  0.6990493118921045  0.9214087388053513  0.6203506977301165  1.0000
  N   N1        1.0  0.7352455563191574  0.3304676504153863  0.9001221209975674  1.0000
  N   N2        1.0  0.2647544432606474  0.6695323488790708  0.099877878733393  1.0000
  N   N3        1.0  0.528206883714769  0.15362687087421856  0.20012030395236427  1.0000
  N   N4        1.0  0.47179311630444926  0.8463731298897985  0.7998796958462858  1.0000
  O   O1        1.0  0.2514473102960035  0.457922187175786  0.40394321764403907  1.0000
  O   O2        1.0  0.7485526907704683  0.5420778121326723  0.596056782976062  1.0000
  O   O3        1.0  0.2516735522202193  0.5210156003725684  0.5660053039521573  1.0000
  O   O4        1.0  0.748326447373305  0.47898439894318967  0.4339946965035064  1.0000
  O   O5        1.0  0.23480387464889244  0.026621229094029638  0.2855257326471814  1.0000
  O   O6        1.0  0.7651961253703258  0.9733787716699873  0.7144742671514688  1.0000
  O   O7        1.0  0.4862701152351527  0.15103701934460806  0.4256486665541365  1.0000
  O   O8        1.0  0.5137298858175996  0.8489629799425492  0.5743513333412613  1.0000
