data_image0
_chemical_formula_structural       H32C32N8O6Cl2Br2
_chemical_formula_sum              "H32 C32 N8 O6 Cl2 Br2"
_cell_length_a       8.071648464034697
_cell_length_b       9.234689593601948
_cell_length_c       13.029755117468545
_cell_angle_alpha    104.82524253762055
_cell_angle_beta     97.59187968336637
_cell_angle_gamma    109.41037515202227

_space_group_name_H-M_alt    "P 1"
_space_group_IT_number       1

loop_
  _space_group_symop_operation_xyz
  'x, y, z'

loop_
  _atom_site_type_symbol
  _atom_site_label
  _atom_site_symmetry_multiplicity
  _atom_site_fract_x
  _atom_site_fract_y
  _atom_site_fract_z
  _atom_site_occupancy
  H   H1        1.0  0.9698951283830919  0.9022306154550086  0.7494759884936275  1.0000
  H   H2        1.0  0.03010487170860137  0.09776938522324484  0.250524011383777  1.0000
  H   H3        1.0  0.7297626137272772  0.7697878195114752  0.834123424284208  1.0000
  H   H4        1.0  0.2702373859204749  0.23021218002516897  0.16587657560646552  1.0000
  H   H5        1.0  0.26755451287979004  0.24391212365806164  0.7145547293840585  1.0000
  H   H6        1.0  0.7324454872119033  0.7560878770201919  0.2854452704933461  1.0000
  H   H7        1.0  0.23196082041255642  0.9974762543618526  0.45491058763770664  1.0000
  H   H8        1.0  0.7680391804755801  0.0025237451707367854  0.545089412268469  1.0000
  H   H9        1.0  0.07152116053879079  0.7214650974650395  0.3213473298849494  1.0000
  H   H10       1.0  0.9284788391089613  0.2785349020716047  0.6786526700057242  1.0000
  H   H11       1.0  0.46135722286440006  0.8256290401055861  0.1279415109727453  1.0000
  H   H12       1.0  0.5386427770892439  0.17437095983846973  0.8720584897350977  1.0000
  H   H13       1.0  0.6229383141549023  0.10007861677284956  0.26160255372237023  1.0000
  H   H14       1.0  0.3770616854928498  0.8999213827637946  0.7383974461683034  1.0000
  H   H15       1.0  0.9625655573785511  0.15559664815278035  0.9983729726913598  1.0000
  H   H16       1.0  0.037434442269201  0.8444033513838639  0.0016270271993138895  1.0000
  H   H17       1.0  0.08954139075502  0.49787759814157184  0.17187045590904976  1.0000
  H   H18       1.0  0.910458608892732  0.5021224013950724  0.8281295439816239  1.0000
  H   H19       1.0  0.22795184493092507  0.5467638923202045  0.0793678652396777  1.0000
  H   H20       1.0  0.7720481550227188  0.45323610762385125  0.9206321354681652  1.0000
  H   H21       1.0  0.0331740203906297  0.5946715760839834  0.08026722467192188  1.0000
  H   H22       1.0  0.9668259792571224  0.40532842345266085  0.9197327752187517  1.0000
  H   H23       1.0  0.5746276893391361  0.6079394325743619  0.9036307564142574  1.0000
  H   H24       1.0  0.42537231030861605  0.39206056696228225  0.09636924347641626  1.0000
  H   H25       1.0  0.37389540589027415  0.4335378363274836  0.8720157974167448  1.0000
  H   H26       1.0  0.626104593757478  0.5664621632091605  0.12798420247392867  1.0000
  H   H27       1.0  0.23106841212442517  0.7660317637732207  0.9335785659790258  1.0000
  H   H28       1.0  0.7689315879672682  0.23396823690503282  0.0664214338983789  1.0000
  H   H29       1.0  0.1518825228927186  0.9641182625576596  0.9430081756218937  1.0000
  H   H30       1.0  0.8481174771989747  0.0358817381205938  0.05699182425551098  1.0000
  H   H31       1.0  0.640007536999104  0.29630803346164325  0.4143843433032833  1.0000
  H   H32       1.0  0.3599924638890328  0.7036919660709461  0.5856156566028923  1.0000
  C   C1        1.0  0.8802094075004441  0.6898296180898397  0.6034105834515772  1.0000
  C   C2        1.0  0.1197905925912492  0.3101703825884138  0.3965894164258275  1.0000
  C   C3        1.0  0.8729134847921979  0.7785012417245784  0.7071293799509801  1.0000
  C   C4        1.0  0.12708651609593882  0.22149875780801107  0.29287061995519553  1.0000
  C   C5        1.0  0.73918930540835  0.7045765727936892  0.7541093292584875  1.0000
  C   C6        1.0  0.26081069423940206  0.295423426742955  0.2458906706321861  1.0000
  C   C7        1.0  0.6182669334418857  0.5444578538714216  0.6970946535577409  1.0000
  C   C8        1.0  0.3817330662058664  0.4555421456652225  0.3029053463329326  1.0000
  C   C9        1.0  0.3718053111607153  0.3049752868978225  0.6772851348428387  1.0000
  C   C10       1.0  0.6281946904772545  0.6950247141837879  0.3227148658672373  1.0000
  C   C11       1.0  0.5160266847517049  0.30033043651202906  0.53681048735333  1.0000
  C   C12       1.0  0.4839733148960473  0.6996695630246151  0.46318951253734364  1.0000
  C   C13       1.0  0.6401622153580048  0.46606028461212834  0.5944890036146485  1.0000
  C   C14       1.0  0.35983778473368844  0.5339397160661252  0.40551099626275605  1.0000
  C   C15       1.0  0.43796858522359355  0.06654772598836835  0.3674595171129264  1.0000
  C   C16       1.0  0.5620314144241585  0.9334522735482759  0.6325404827777472  1.0000
  C   C17       1.0  0.28173428290300695  0.9585527388277756  0.3837063828090027  1.0000
  C   C18       1.0  0.7182657167447452  0.04144726070886857  0.6162936170816709  1.0000
  C   C19       1.0  0.19292280610767834  0.8043066197122967  0.3079343372713994  1.0000
  C   C20       1.0  0.807077193984015  0.19569338096595695  0.6920656626060052  1.0000
  C   C21       1.0  0.2536948461590508  0.7526762841688085  0.21463534063752132  1.0000
  C   C22       1.0  0.7463051534887014  0.24732371536783576  0.7853646592531524  1.0000
  C   C23       1.0  0.40999402626217435  0.8620057205360553  0.19954614310448343  1.0000
  C   C24       1.0  0.5900059738295189  0.1379942801421982  0.8004538567729211  1.0000
  C   C25       1.0  0.5015897621404677  0.016834372754714208  0.27465149271349937  1.0000
  C   C26       1.0  0.4984102375072844  0.9831656267819301  0.7253485071771741  1.0000
  C   C27       1.0  0.14762732602413886  0.5886288916539606  0.1326380972382058  1.0000
  C   C28       1.0  0.8523726736236134  0.41137110788268366  0.8673619026524678  1.0000
  C   C29       1.0  0.44699384562344785  0.5321321455927126  0.8418345078242621  1.0000
  C   C30       1.0  0.5530061544682454  0.4678678550855409  0.15816549205314254  1.0000
  C   C31       1.0  0.3309487258230536  0.6310458005322579  0.8323583847151776  1.0000
  C   C32       1.0  0.6690512738246984  0.36895419900438625  0.16764161517549583  1.0000
  N   N1        1.0  0.4806690001236285  0.45876587923907364  0.737697158965677  1.0000
  N   N2        1.0  0.5193309999680646  0.5412341214391798  0.26230284091172756  1.0000
  N   N3        1.0  0.38429582663493683  0.22574380196933475  0.5813319105566173  1.0000
  N   N4        1.0  0.6157041730128153  0.7742561975673095  0.41866808933405636  1.0000
  N   N5        1.0  0.7695003980498367  0.5393588717555428  0.5482723547366214  1.0000
  N   N6        1.0  0.23049960159791544  0.46064112778110144  0.4517276451540521  1.0000
  N   N7        1.0  0.5353110318142744  0.2257466173179395  0.43918404796938315  1.0000
  N   N8        1.0  0.46468896827741885  0.774253383360314  0.5608159519080215  1.0000
  O   O1        1.0  0.31623900805702515  0.6999117055635844  0.9305325858137893  1.0000
  O   O2        1.0  0.6837609920346682  0.3000882951146691  0.06946741406361542  1.0000
  O   O3        1.0  0.2616926104596329  0.6392568496293154  0.7449819916160085  1.0000
  O   O4        1.0  0.7383073891881192  0.3607431499073287  0.25501800827466503  1.0000
  O   O5        1.0  0.11490882065817373  0.8527219714163181  0.9483075882713647  1.0000
  O   O6        1.0  0.8850911792954702  0.14727802852773764  0.051692412436478236  1.0000
  Cl  Cl1       1.0  0.0423936855396436  0.7848847222199936  0.5428501707132969  1.0000
  Cl  Cl2       1.0  0.9576063145520497  0.21511527845825978  0.45714982916410773  1.0000
  Br  Br1       1.0  0.17797874902782818  0.1884363410315134  0.9072567958543983  1.0000
  Br  Br2       1.0  0.8220212506199239  0.8115636585051308  0.09274320403627534  1.0000
