data_image0
_chemical_formula_structural       H42C40N10O18
_chemical_formula_sum              "H42 C40 N10 O18"
_cell_length_a       7.967097979613503
_cell_length_b       9.628873796423935
_cell_length_c       14.624230220616353
_cell_angle_alpha    81.15332986539059
_cell_angle_beta     81.99312828306023
_cell_angle_gamma    71.22181984639053

_space_group_name_H-M_alt    "P 1"
_space_group_IT_number       1

loop_
  _space_group_symop_operation_xyz
  'x, y, z'

loop_
  _atom_site_type_symbol
  _atom_site_label
  _atom_site_symmetry_multiplicity
  _atom_site_fract_x
  _atom_site_fract_y
  _atom_site_fract_z
  _atom_site_occupancy
  H   H1        1.0  0.7925784446504759  0.3633573162340399  0.413864314791924  1.0000
  H   H2        1.0  0.20742136588576204  0.636641537116376  0.5861359061198897  1.0000
  H   H3        1.0  0.7903499485212698  0.26761572236552106  0.6981719502986897  1.0000
  H   H4        1.0  0.20965086888069437  0.7323834680602627  0.30182808909662295  1.0000
  H   H5        1.0  0.857459535846538  0.6792773465467649  0.6416175227448115  1.0000
  H   H6        1.0  0.14254028325731158  0.320722364598193  0.35838219152134176  1.0000
  H   H7        1.0  0.7529501691487027  0.8717056084762923  0.5450651355727191  1.0000
  H   H8        1.0  0.24705029008088894  0.1282938993896658  0.45493412941027145  1.0000
  H   H9        1.0  0.6535821320578742  0.989341139762055  0.38988802686450347  1.0000
  H   H10       1.0  0.34641716326732946  0.01065835579404835  0.6101112859155572  1.0000
  H   H11       1.0  0.6138449717793621  0.8335862355776836  0.276968730975894  1.0000
  H   H12       1.0  0.38615511665319324  0.1664125304628115  0.723030680646316  1.0000
  H   H13       1.0  0.6075829418803749  0.5990392808092381  0.25679168768680655  1.0000
  H   H14       1.0  0.39241857270533526  0.4009590147982616  0.7432079197547082  1.0000
  H   H15       1.0  0.6669350487344111  0.15551450531421335  0.5464756462773066  1.0000
  H   H16       1.0  0.33306567748908483  0.8444842362559544  0.4535246275815678  1.0000
  H   H17       1.0  0.87069938590973  0.08763772874813064  0.5993066112058462  1.0000
  H   H18       1.0  0.12930116613043832  0.91236154598124  0.40069393187095537  1.0000
  H   H19       1.0  0.8711334839960899  0.13236436485117092  0.47576392471818496  1.0000
  H   H20       1.0  0.12886751050537923  0.8676341779518667  0.5242365460066739  1.0000
  H   H21       1.0  0.0036139096052021295  0.40745449972252984  0.7702758642079466  1.0000
  H   H22       1.0  0.996386018067416  0.5925454155133021  0.22972426865787096  1.0000
  H   H23       1.0  0.7813476991484676  0.41594470538072476  0.8130218843685988  1.0000
  H   H24       1.0  0.21865255806233858  0.5840546746497955  0.1869779781419478  1.0000
  H   H25       1.0  0.8420988191508018  0.5819900020779729  0.7843207875273402  1.0000
  H   H26       1.0  0.15790050284392115  0.4180096518808981  0.21567926226561032  1.0000
  H   H27       1.0  0.23968980768313736  0.8933258132523924  0.12311228980273112  1.0000
  H   H28       1.0  0.760309062193873  0.10667345824075189  0.8768874957328598  1.0000
  H   H29       1.0  0.6646677904070711  0.06720241260551024  0.15599143662681486  1.0000
  H   H30       1.0  0.3353298683794926  0.9327964559777803  0.8440089864982906  1.0000
  H   H31       1.0  0.8293370951176169  0.4831164582461713  0.15487324576362158  1.0000
  H   H32       1.0  0.17066203218985643  0.5168814110996445  0.8451270278928981  1.0000
  H   H33       1.0  0.8794081907973045  0.5848513656114928  0.046474762592164355  1.0000
  H   H34       1.0  0.12059145211071173  0.41514675254594663  0.9535258209304996  1.0000
  H   H35       1.0  0.7950699110667983  0.4363192211649675  0.046278726135428834  1.0000
  H   H36       1.0  0.2049298148651554  0.5636791163933422  0.9537212657023252  1.0000
  H   H37       1.0  0.38241673056608405  0.7411835110433548  0.007513614261307803  1.0000
  H   H38       1.0  0.6175821014450612  0.2588163901370791  0.9924861594078849  1.0000
  H   H39       1.0  0.5760298127397553  0.6283545078215474  0.9442136169981897  1.0000
  H   H40       1.0  0.42397019347772186  0.3716457035605821  0.055786528808828784  1.0000
  H   H41       1.0  0.5751276838137497  0.799454938136075  0.9747704212180067  1.0000
  H   H42       1.0  0.4248731582021177  0.20054466961927006  0.025229925896914328  1.0000
  C   C1        1.0  0.7904361382027121  0.3195218946474961  0.5530310296890937  1.0000
  C   C2        1.0  0.20956367769155537  0.68047764442367  0.44696840191159026  1.0000
  C   C3        1.0  0.7916364210492011  0.35536911170580515  0.6418394054034149  1.0000
  C   C4        1.0  0.20836430556702124  0.6446300183362945  0.35816014355954734  1.0000
  C   C5        1.0  0.819951607495859  0.47952485140180107  0.6671326072106483  1.0000
  C   C6        1.0  0.1800485384398774  0.5204741970246705  0.3328673160598504  1.0000
  C   C7        1.0  0.7688045113328287  0.6539625570209093  0.5213455447958584  1.0000
  C   C8        1.0  0.23119635778260597  0.3460362484070299  0.47865396527211584  1.0000
  C   C9        1.0  0.735970588319594  0.8052295262255029  0.4952886699148033  1.0000
  C   C10       1.0  0.26403058175718863  0.19476901759710136  0.504710934217457  1.0000
  C   C11       1.0  0.6803633508176427  0.8706838735181718  0.40796916480240597  1.0000
  C   C12       1.0  0.31963740768167415  0.12931559234199252  0.592030449937638  1.0000
  C   C13       1.0  0.6568062602752701  0.7852882301709062  0.3455717064997529  1.0000
  C   C14       1.0  0.34319451120584127  0.21471036622641768  0.6544279364736698  1.0000
  C   C15       1.0  0.688403759410537  0.6326596509181783  0.37122358393650107  1.0000
  C   C16       1.0  0.31159747215242173  0.3673400232844435  0.6287758726703592  1.0000
  C   C17       1.0  0.7464017902887509  0.5653873118668301  0.45899788294766297  1.0000
  C   C18       1.0  0.2535991483474032  0.434611700971806  0.5410019977010396  1.0000
  C   C19       1.0  0.802112899453711  0.16424879275036808  0.5430751979542598  1.0000
  C   C20       1.0  0.19788776549699003  0.8357500018478456  0.45692501019285037  1.0000
  C   C21       1.0  0.8631179673412629  0.4721050056210891  0.7645379861166637  1.0000
  C   C22       1.0  0.1368818990675732  0.5278946458608923  0.2354617853135922  1.0000
  C   C23       1.0  0.973762096563569  0.15742453534556775  0.26390543146370915  1.0000
  C   C24       1.0  0.026237262156527295  0.842574240065513  0.7360949281110223  1.0000
  C   C25       1.0  0.12881960932516154  0.06034907136694653  0.2145813454993424  1.0000
  C   C26       1.0  0.8711798614516458  0.9396494842828298  0.785419045559248  1.0000
  C   C27       1.0  0.11752790825550836  0.966566918270354  0.15413428766991044  1.0000
  C   C28       1.0  0.8824710228557645  0.03343203234812576  0.8458660752949889  1.0000
  C   C29       1.0  0.951268576635755  0.9668579127523391  0.13519504220396122  1.0000
  C   C30       1.0  0.04873014546298273  0.033141593720580294  0.8648049304344299  1.0000
  C   C31       1.0  0.7944439663542041  0.06560307568848686  0.17283097455218657  1.0000
  C   C32       1.0  0.20555419423659604  0.9343976885966482  0.8271689225715908  1.0000
  C   C33       1.0  0.8072276558531185  0.1544264104402476  0.234680790952914  1.0000
  C   C34       1.0  0.19277174351763196  0.8455731516355186  0.7653195371780338  1.0000
  C   C35       1.0  0.6031292006898957  0.6342900836379  0.08868430300481857  1.0000
  C   C36       1.0  0.3968700738557495  0.3657090258113918  0.9113155513302209  1.0000
  C   C37       1.0  0.7875255116687853  0.5274084436260146  0.08529095297206674  1.0000
  C   C38       1.0  0.2124736729597955  0.47258980037136494  0.9147092411669715  1.0000
  C   C39       1.0  0.5282204105458902  0.7026903096575943  0.998447971355068  1.0000
  C   C40       1.0  0.47177977658038994  0.2973090879310085  0.0015519377042953531  1.0000
  N   N1        1.0  0.7812290897229898  0.4104389889585011  0.47379127686872613  1.0000
  N   N2        1.0  0.21877100990329224  0.5895604091519318  0.5262079965847277  1.0000
  N   N3        1.0  0.8232533038842467  0.6029485086931897  0.6119379342336195  1.0000
  N   N4        1.0  0.17674635797777014  0.39705088183254766  0.388061856113567  1.0000
  N   N5        1.0  0.3064090509455555  0.05991770424371942  0.22518948214198486  1.0000
  N   N6        1.0  0.6935907815392638  0.9400807227209729  0.7748107074729275  1.0000
  N   N7        1.0  0.938391493256499  0.8677413155347595  0.07412310188925726  1.0000
  N   N8        1.0  0.06160888831782854  0.13225751674669492  0.9258766736924126  1.0000
  N   N9        1.0  0.6401781250261801  0.25153130064521295  0.27429196395945177  1.0000
  N   N10       1.0  0.35982204830737424  0.7484670443129313  0.7257088580504722  1.0000
  O   O1        1.0  0.6692758301953078  0.5429669213114628  0.31374743117195125  1.0000
  O   O2        1.0  0.3307261902406895  0.45703192199123993  0.6862518564698713  1.0000
  O   O3        1.0  0.9785594799380102  0.24013090683595567  0.3215981094161212  1.0000
  O   O4        1.0  0.02144061843367741  0.7598688155607825  0.6784016956947141  1.0000
  O   O5        1.0  0.3345161337914017  0.10579975812264973  0.29493325638691603  1.0000
  O   O6        1.0  0.6654834764787786  0.894198059180481  0.705067663395927  1.0000
  O   O7        1.0  0.4263477872031094  0.012444665724813769  0.16249239691557651  1.0000
  O   O8        1.0  0.5736520552817549  0.9875548624959369  0.8375080040995807  1.0000
  O   O9        1.0  0.07844634984634793  0.7753564217641613  0.04438456008556516  1.0000
  O   O10       1.0  0.9215540240263826  0.22464340235288172  0.9556154583542091  1.0000
  O   O11       1.0  0.787906757418503  0.878594547729443  0.05305812801252607  1.0000
  O   O12       1.0  0.21209400957061098  0.12140366107486357  0.9469413244683671  1.0000
  O   O13       1.0  0.6145533729076919  0.24614275330886232  0.36010029396670973  1.0000
  O   O14       1.0  0.38544532614980775  0.7538543610633951  0.6399010960953342  1.0000
  O   O15       1.0  0.5332523081189491  0.3320164533534846  0.2196213113163859  1.0000
  O   O16       1.0  0.46674831181724435  0.6679823960150529  0.7803793330057465  1.0000
  O   O17       1.0  0.5147369529537974  0.6690727426358454  0.1632857712980171  1.0000
  O   O18       1.0  0.4852629277686177  0.3309261749375051  0.836714373645859  1.0000
