data_image0
_chemical_formula_structural       H16C32N2O2Cl4
_chemical_formula_sum              "H16 C32 N2 O2 Cl4"
_cell_length_a       8.501769612416835
_cell_length_b       8.788853834337504
_cell_length_c       9.647555149148932
_cell_angle_alpha    92.57171018414321
_cell_angle_beta     114.72612522811562
_cell_angle_gamma    90.8378786449116

_space_group_name_H-M_alt    "P 1"
_space_group_IT_number       1

loop_
  _space_group_symop_operation_xyz
  'x, y, z'

loop_
  _atom_site_type_symbol
  _atom_site_label
  _atom_site_symmetry_multiplicity
  _atom_site_fract_x
  _atom_site_fract_y
  _atom_site_fract_z
  _atom_site_occupancy
  H   H1        1.0  0.25093868785167883  0.19493383514097895  0.0981781882316923  1.0000
  H   H2        1.0  0.7490613112908353  0.8050661652255424  0.9018218108656127  1.0000
  H   H3        1.0  0.20009845984712868  0.4234032920828994  0.23334193007044807  1.0000
  H   H4        1.0  0.7999015404738323  0.5765967082908423  0.7666580690313723  1.0000
  H   H5        1.0  0.2523413943230909  0.7060477345397016  0.8998864385724648  1.0000
  H   H6        1.0  0.7476586048194233  0.2939522658268198  0.10011356052484043  1.0000
  H   H7        1.0  0.29966327804820275  0.481374752082236  0.7629502475059181  1.0000
  H   H8        1.0  0.7003367210937498  0.5186252471476749  0.23704975161140343  1.0000
  H   H9        1.0  0.48499648458789746  0.10130121578142272  0.6797064516187417  1.0000
  H   H10       1.0  0.5150035157325018  0.8986987834557084  0.32029354750309524  1.0000
  H   H11       1.0  0.3456855024253322  0.052863692665287614  0.39675439687797737  1.0000
  H   H12       1.0  0.6543144972555376  0.9471363066484962  0.6032456033821185  1.0000
  H   H13       1.0  0.8658758244087668  0.2231836835779888  0.3862738940536286  1.0000
  H   H14       1.0  0.13412417527210288  0.776816315735795  0.6137261062064673  1.0000
  H   H15       1.0  0.005045139074945755  0.273066965134604  0.6644000684253007  1.0000
  H   H16       1.0  0.9949548617849325  0.7269330353230106  0.33559993181929393  1.0000
  C   C1        1.0  0.5373843538252666  0.07189492603195355  0.10104369495812049  1.0000
  C   C2        1.0  0.4626156453172477  0.928105074334568  0.8989563041391847  1.0000
  C   C3        1.0  0.424151228495252  0.08527481848120784  0.9358735352822408  1.0000
  C   C4        1.0  0.5758487711861795  0.9147251819691866  0.0641264649578386  1.0000
  C   C5        1.0  0.2865486314055983  0.3241659586287253  0.9273422692171357  1.0000
  C   C6        1.0  0.7134513682752716  0.6758340406850586  0.07265773104296004  1.0000
  C   C7        1.0  0.2554611440919253  0.3072808670523121  0.05737049186547217  1.0000
  C   C8        1.0  0.7445388567679531  0.6927191334053026  0.9426295083791226  1.0000
  C   C9        1.0  0.22522184196209385  0.43425661765880824  0.13240452632182007  1.0000
  C   C10       1.0  0.7747781583588672  0.5657433827149334  0.8675954727800004  1.0000
  C   C11       1.0  0.22806365140666077  0.5776311533430494  0.07636131062785964  1.0000
  C   C12       1.0  0.7719363494526559  0.42236884597795465  0.9236386896367516  1.0000
  C   C13       1.0  0.2541108041729675  0.5945228332316224  0.9440724607582784  1.0000
  C   C14       1.0  0.7458891961474318  0.4054771660055087  0.05592753836355839  1.0000
  C   C15       1.0  0.28227910770275183  0.4673723139398773  0.8680486403689909  1.0000
  C   C16       1.0  0.7177208931571265  0.5326276865177374  0.1319513598756038  1.0000
  C   C17       1.0  0.2512886818124178  0.18142967671484236  0.6901760434190869  1.0000
  C   C18       1.0  0.7487113178690138  0.818570323735552  0.30982395682099245  1.0000
  C   C19       1.0  0.3489418064601612  0.12330013934473762  0.6149289713347779  1.0000
  C   C20       1.0  0.6510581943997171  0.876699861112877  0.3850710289098168  1.0000
  C   C21       1.0  0.2716310832530482  0.09707949469275544  0.457356288102009  1.0000
  C   C22       1.0  0.7283689176068301  0.9029205057648592  0.5426437121425857  1.0000
  C   C23       1.0  0.09688116678709485  0.12867811254035183  0.37698657608619485  1.0000
  C   C24       1.0  0.9031188323548577  0.871321886689559  0.6230134230311268  1.0000
  C   C25       1.0  0.0009104069015339273  0.19518494897893163  0.4494207530134858  1.0000
  C   C26       1.0  0.9990895927793358  0.8048150503348521  0.5505792472466101  1.0000
  C   C27       1.0  0.07959535703399392  0.2225128505582557  0.6070254856518804  1.0000
  C   C28       1.0  0.9204046438253225  0.7774871487627484  0.3929745146127307  1.0000
  C   C29       1.0  0.5697612729517804  0.4902940343241772  0.48689622513583203  1.0000
  C   C30       1.0  0.4302387267296512  0.5097059661262173  0.5131037751042473  1.0000
  C   C31       1.0  0.7079755060993576  0.4689984049034612  0.4657931415654009  1.0000
  C   C32       1.0  0.29202449358207405  0.5310015955469333  0.5342068586746785  1.0000
  N   N1        1.0  0.32497164795845834  0.1943560246252439  0.853618834058475  1.0000
  N   N2        1.0  0.6750283517229733  0.8056439758251506  0.1463811661816043  1.0000
  O   O1        1.0  0.5821204941195387  0.15587697152017638  0.2174329377228239  1.0000
  O   O2        1.0  0.4178795067403396  0.8441230289374383  0.7825670625217708  1.0000
  Cl  Cl1       1.0  0.19602937330011128  0.7377556731582864  0.17089327276758726  1.0000
  Cl  Cl2       1.0  0.8039706263813201  0.26224432729210795  0.829106727472492  1.0000
  Cl  Cl3       1.0  0.9984667083619195  0.08323815684075393  0.18193330497393326  1.0000
  Cl  Cl4       1.0  0.0015332924973970178  0.9167618424802502  0.8180666952906779  1.0000
