data_image0
_chemical_formula_structural       H88C124N8O12Cl16
_chemical_formula_sum              "H88 C124 N8 O12 Cl16"
_cell_length_a       19.420575871677986
_cell_length_b       7.597907652549912
_cell_length_c       17.996932614217055
_cell_angle_alpha    90.0
_cell_angle_beta     91.82826317984687
_cell_angle_gamma    90.0

_space_group_name_H-M_alt    "P 1"
_space_group_IT_number       1

loop_
  _space_group_symop_operation_xyz
  'x, y, z'

loop_
  _atom_site_type_symbol
  _atom_site_label
  _atom_site_symmetry_multiplicity
  _atom_site_fract_x
  _atom_site_fract_y
  _atom_site_fract_z
  _atom_site_occupancy
  H   H1        1.0  0.5009039459439737  0.8875194156560857  0.6165744745866898  1.0000
  H   H2        1.0  0.4990960536300322  0.8875194156560857  0.883425525432935  1.0000
  H   H3        1.0  0.0009039459986647312  0.38751941648196514  0.6165744742385623  1.0000
  H   H4        1.0  0.999096053575341  0.38751941648196514  0.8834255257810625  1.0000
  H   H5        1.0  0.49909605373556953  0.11248058400830711  0.3834255256584784  1.0000
  H   H6        1.0  0.5009039460337336  0.11248058400830711  0.11657447425630042  1.0000
  H   H7        1.0  0.9990960536651012  0.6124805844985795  0.3834255254506731  1.0000
  H   H8        1.0  0.0009039461042021006  0.6124805844985795  0.11657447446410567  1.0000
  H   H9        1.0  0.2375465822343669  0.5980075420468072  0.20572982819892255  1.0000
  H   H10       1.0  0.7624534180498747  0.5980075420468072  0.2942701717165674  1.0000
  H   H11       1.0  0.7375465821796758  0.09800754155653489  0.20572982854705008  1.0000
  H   H12       1.0  0.2624534176054048  0.09800754155653489  0.2942701719236615  1.0000
  H   H13       1.0  0.7624534179443373  0.40199245761758556  0.7942701714910239  1.0000
  H   H14       1.0  0.23754658214460703  0.40199245761758556  0.7057298285293119  1.0000
  H   H15       1.0  0.2624534180148058  0.9019924581078579  0.7942701716988292  1.0000
  H   H16       1.0  0.7375465820741386  0.9019924581078579  0.7057298283215067  1.0000
  H   H17       1.0  0.5761850506046425  0.5954308642434872  0.4303437431103351  1.0000
  H   H18       1.0  0.423814949679599  0.5954308642434872  0.06965625680515483  1.0000
  H   H19       1.0  0.07618505067511105  0.09543086375321497  0.4303437433181404  1.0000
  H   H20       1.0  0.923814949624908  0.09543086375321497  0.06965625715328234  1.0000
  H   H21       1.0  0.4238149495898392  0.4045691354209055  0.5696562571355441  1.0000
  H   H22       1.0  0.5761850504991052  0.4045691354209055  0.9303437428847917  1.0000
  H   H23       1.0  0.9238149495193707  0.9045691359111778  0.5696562569277389  1.0000
  H   H24       1.0  0.07618505056957368  0.9045691359111778  0.9303437430925969  1.0000
  H   H25       1.0  0.4190829168204342  0.9658323969675009  0.3301885161736803  1.0000
  H   H26       1.0  0.5809170829488689  0.9658323969675009  0.16981148374109853  1.0000
  H   H27       1.0  0.9190829172806815  0.46583239647722857  0.3301885165225189  1.0000
  H   H28       1.0  0.08091708300355992  0.46583239647722857  0.169811483392971  1.0000
  H   H29       1.0  0.5809170828433315  0.034167602696891904  0.6698114835155551  1.0000
  H   H30       1.0  0.4190829172456127  0.034167602696891904  0.8301885165047808  1.0000
  H   H31       1.0  0.08091708291380006  0.5341676031871643  0.6698114837233604  1.0000
  H   H32       1.0  0.9190829171751442  0.5341676031871643  0.8301885162969754  1.0000
  H   H33       1.0  0.4007221662046954  0.9832951427742983  0.19491908206698033  1.0000
  H   H34       1.0  0.599277834079546  0.9832951427742983  0.3050809178485096  1.0000
  H   H35       1.0  0.900722166134227  0.48329514228402604  0.1949190818591751  1.0000
  H   H36       1.0  0.09927783363507621  0.48329514228402604  0.30508091805560367  1.0000
  H   H37       1.0  0.5992778339897862  0.016704858206246304  0.8050809181788989  1.0000
  H   H38       1.0  0.40072216609915806  0.016704858206246304  0.6949190818414368  1.0000
  H   H39       1.0  0.09927783404447724  0.5167048573803668  0.8050809178307714  1.0000
  H   H40       1.0  0.9007221660444672  0.5167048573803668  0.6949190821895643  1.0000
  H   H41       1.0  0.46001045433107546  0.6146166975894715  0.36817054802112836  1.0000
  H   H42       1.0  0.5399895459531661  0.6146166975894715  0.1318294518943616  1.0000
  H   H43       1.0  0.960010454260607  0.11461669709919907  0.36817054781332303  1.0000
  H   H44       1.0  0.03998954602363451  0.11461669709919907  0.13182945210216687  1.0000
  H   H45       1.0  0.5399895458634062  0.38538330207492144  0.6318294522247508  1.0000
  H   H46       1.0  0.4600104542255382  0.38538330207492144  0.8681705477955848  1.0000
  H   H47       1.0  0.03998954591809714  0.8853833025651937  0.6318294518766234  1.0000
  H   H48       1.0  0.9600104541708473  0.8853833025651937  0.8681705481437124  1.0000
  H   H49       1.0  0.3865333998134394  0.9126628615541003  0.5533924876635263  1.0000
  H   H50       1.0  0.6134666002755049  0.9126628615541003  0.9466075123568094  1.0000
  H   H51       1.0  0.886533399742971  0.412662861063828  0.5533924874557211  1.0000
  H   H52       1.0  0.11346660034597338  0.412662861063828  0.9466075125646148  1.0000
  H   H53       1.0  0.6134666003810423  0.0873371381102925  0.44660751258235293  1.0000
  H   H54       1.0  0.3865333999031993  0.0873371381102925  0.05339248733313703  1.0000
  H   H55       1.0  0.11346659992079484  0.5873371386005648  0.44660751223351425  1.0000
  H   H56       1.0  0.8865333998485084  0.5873371386005648  0.05339248768126456  1.0000
  H   H57       1.0  0.256589177828069  0.5816988323774531  0.34300220290399236  1.0000
  H   H58       1.0  0.7434108219570116  0.5816988323774531  0.15699779756671925  1.0000
  H   H59       1.0  0.7565891777576005  0.08169883188718083  0.34300220269618703  1.0000
  H   H60       1.0  0.24341082201170267  0.08169883188718083  0.15699779721859172  1.0000
  H   H61       1.0  0.7434108218514743  0.41830116728693967  0.6569977973411758  1.0000
  H   H62       1.0  0.25658917772253165  0.41830116728693967  0.8430022026784488  1.0000
  H   H63       1.0  0.24341082192194277  0.918301167777212  0.656997797548981  1.0000
  H   H64       1.0  0.7565891781670016  0.918301167777212  0.8430022024713547  1.0000
  H   H65       1.0  0.405413868883658  0.34712046666095936  0.18491335969953765  1.0000
  H   H66       1.0  0.5945861314005835  0.34712046666095936  0.3150866402159523  1.0000
  H   H67       1.0  0.9054138688131895  0.8471204671512317  0.1849133594917324  1.0000
  H   H68       1.0  0.09458613147105206  0.8471204671512317  0.31508664042375756  1.0000
  H   H69       1.0  0.5945861313108237  0.6528795330034334  0.8150866405463416  1.0000
  H   H70       1.0  0.40541386877812063  0.6528795330034334  0.6849133594739942  1.0000
  H   H71       1.0  0.09458613136551469  0.1528795325131611  0.8150866401982141  1.0000
  H   H72       1.0  0.9054138687234295  0.1528795325131611  0.6849133598221218  1.0000
  H   H73       1.0  0.4453557504419511  0.5511767464815852  0.2131078564539578  1.0000
  H   H74       1.0  0.5546442493273521  0.5511767464815852  0.28689214346082104  1.0000
  H   H75       1.0  0.9453557503714825  0.05117674599131299  0.2131078562461525  1.0000
  H   H76       1.0  0.05464424939782063  0.05117674599131299  0.2868921436686263  1.0000
  H   H77       1.0  0.5546442492375923  0.4488232544989593  0.7868921437912103  1.0000
  H   H78       1.0  0.445355750851352  0.4488232544989593  0.7131078562291254  1.0000
  H   H79       1.0  0.05464424929228325  0.9488232536730797  0.7868921434430828  1.0000
  H   H80       1.0  0.9453557507966611  0.9488232536730797  0.713107856577253  1.0000
  H   H81       1.0  0.40282676409255924  0.41782965721287374  0.27789476355081705  1.0000
  H   H82       1.0  0.5971732361916823  0.41782965721287374  0.22210523636467283  1.0000
  H   H83       1.0  0.9028267640378683  0.9178296577031461  0.27789476389894463  1.0000
  H   H84       1.0  0.0971732362621508  0.9178296577031461  0.2221052365724781  1.0000
  H   H85       1.0  0.5971732360861449  0.5821703424515191  0.7221052361391294  1.0000
  H   H86       1.0  0.4028267640027994  0.5821703424515191  0.7778947638812065  1.0000
  H   H87       1.0  0.09717323615661343  0.0821703432773986  0.7221052363469346  1.0000
  H   H88       1.0  0.9028267639323309  0.0821703432773986  0.7778947636734012  1.0000
  C   C1        1.0  0.4922669419115388  0.828917318820838  0.5619624385173384  1.0000
  C   C2        1.0  0.5077330581774054  0.828917318820838  0.9380375615029973  1.0000
  C   C3        1.0  0.9922669418568478  0.3289173183305656  0.561962438865466  1.0000
  C   C4        1.0  0.007733057717158098  0.3289173183305656  0.9380375611541585  1.0000
  C   C5        1.0  0.507733057752227  0.17108268084355488  0.4380375611718969  1.0000
  C   C6        1.0  0.4922669420170762  0.17108268084355488  0.06196243874288191  1.0000
  C   C7        1.0  0.007733057822695471  0.6710826813338272  0.4380375613797021  1.0000
  C   C8        1.0  0.9922669419466077  0.6710826813338272  0.06196243853507665  1.0000
  C   C9        1.0  0.21916169055670054  0.8021061532584829  0.4554569481640264  1.0000
  C   C10       1.0  0.780838309727541  0.8021061532584829  0.04454305175146352  1.0000
  C   C11       1.0  0.7191616905020095  0.30210615408436237  0.4554569485121539  1.0000
  C   C12       1.0  0.28083830978223195  0.30210615408436237  0.04454305140333599  1.0000
  C   C13       1.0  0.7808383096220036  0.19789384640590993  0.54454305152592  1.0000
  C   C14       1.0  0.2191616904669407  0.19789384640590993  0.9554569484944156  1.0000
  C   C15       1.0  0.2808383096924721  0.6978938468961823  0.5445430517337253  1.0000
  C   C16       1.0  0.7191616903964723  0.6978938468961823  0.9554569482866105  1.0000
  C   C17       1.0  0.4157042550814371  0.7625688735576454  0.4574561732828889  1.0000
  C   C18       1.0  0.5842957452028044  0.7625688735576454  0.04254382663260099  1.0000
  C   C19       1.0  0.9157042550109686  0.26256887438352483  0.4574561730750837  1.0000
  C   C20       1.0  0.0842957452732729  0.26256887438352483  0.04254382684040625  1.0000
  C   C21       1.0  0.584295745097267  0.2374311261067475  0.5425438264070575  1.0000
  C   C22       1.0  0.4157042549758998  0.2374311261067475  0.9574561730573454  1.0000
  C   C23       1.0  0.08429574516773551  0.7374311265970198  0.5425438266148628  1.0000
  C   C24       1.0  0.9157042549212087  0.7374311265970198  0.957456173405473  1.0000
  C   C25       1.0  0.2766937512305197  0.6792705157804755  0.23339536269950545  1.0000
  C   C26       1.0  0.7233062485387834  0.6792705157804755  0.2666046372152734  1.0000
  C   C27       1.0  0.7766937511600511  0.17927051529020308  0.23339536249170015  1.0000
  C   C28       1.0  0.22330624860925197  0.17927051529020308  0.2666046374230786  1.0000
  C   C29       1.0  0.7233062484490236  0.3207294852000692  0.7666046375456627  1.0000
  C   C30       1.0  0.2766937511249823  0.3207294852000692  0.733395362473962  1.0000
  C   C31       1.0  0.2233062485194921  0.8207294843741897  0.7666046377534679  1.0000
  C   C32       1.0  0.7766937515694522  0.8207294843741897  0.7333953622668679  1.0000
  C   C33       1.0  0.5346647838583203  0.6670239770944238  0.4562868848461859  1.0000
  C   C34       1.0  0.46533521591098287  0.6670239770944238  0.04371311506859285  1.0000
  C   C35       1.0  0.034664783913011255  0.16702397660415147  0.4562868844980584  1.0000
  C   C36       1.0  0.965335215856292  0.16702397660415147  0.04371311541672038  1.0000
  C   C37       1.0  0.4653352163361614  0.332976022569969  0.5437131153996934  1.0000
  C   C38       1.0  0.5346647837527828  0.332976022569969  0.9562868846206426  1.0000
  C   C39       1.0  0.965335216265693  0.8329760230602413  0.543713115191888  1.0000
  C   C40       1.0  0.034664783823251395  0.8329760230602413  0.9562868848284478  1.0000
  C   C41       1.0  0.3795764227904607  0.884251372513752  0.3033885314017551  1.0000
  C   C42       1.0  0.6204235774937809  0.884251372513752  0.19661146851373487  1.0000
  C   C43       1.0  0.8795764227357697  0.38425137333963155  0.3033885317498826  1.0000
  C   C44       1.0  0.12042357756424932  0.38425137333963155  0.1966114687215401  1.0000
  C   C45       1.0  0.6204235773882434  0.11574862715064076  0.6966114682881914  1.0000
  C   C46       1.0  0.37957642270070086  0.11574862715064076  0.8033885317321444  1.0000
  C   C47       1.0  0.12042357745871195  0.615748627640913  0.6966114684959966  1.0000
  C   C48       1.0  0.8795764226302325  0.615748627640913  0.8033885315243392  1.0000
  C   C49       1.0  0.3691423595267099  0.8939758023671741  0.22662367133138694  1.0000
  C   C50       1.0  0.6308576407575316  0.8939758023671741  0.273376328584103  1.0000
  C   C51       1.0  0.8691423594562414  0.3939758031930536  0.2266236711235817  1.0000
  C   C52       1.0  0.1308576408280002  0.3939758031930536  0.2733763287919082  1.0000
  C   C53       1.0  0.6308576406677718  0.10602419729721874  0.7733763289144924  1.0000
  C   C54       1.0  0.3691423594211725  0.10602419729721874  0.7266236711058435  1.0000
  C   C55       1.0  0.1308576407224628  0.6060241977874911  0.7733763285663648  1.0000
  C   C56       1.0  0.8691423593664817  0.6060241977874911  0.726623671453971  1.0000
  C   C57       1.0  0.3173826053508746  0.7921061264781494  0.1922593648468915  1.0000
  C   C58       1.0  0.6826173949333669  0.7921061264781494  0.30774063506859844  1.0000
  C   C59       1.0  0.8173826052804062  0.29210612598787705  0.19225936463908622  1.0000
  C   C60       1.0  0.18261739500383545  0.29210612598787705  0.30774063527640366  1.0000
  C   C61       1.0  0.6826173948436071  0.20789387450239527  0.8077406353989878  1.0000
  C   C62       1.0  0.31738260524533723  0.20789387450239527  0.6922593646213481  1.0000
  C   C63       1.0  0.18261739489829806  0.7078938736765157  0.8077406350508602  1.0000
  C   C64       1.0  0.8173826051906462  0.7078938736765157  0.6922593649694755  1.0000
  C   C65       1.0  0.469553872429002  0.6774641895354605  0.4218921874248088  1.0000
  C   C66       1.0  0.5304461278552397  0.6774641895354605  0.07810781249068113  1.0000
  C   C67       1.0  0.969553872374311  0.17746418904518824  0.4218921877729363  1.0000
  C   C68       1.0  0.03044612792570808  0.17746418904518824  0.0781078126984864  1.0000
  C   C69       1.0  0.5304461277497022  0.3225358114450841  0.5781078122651377  1.0000
  C   C70       1.0  0.4695538723392422  0.3225358114450841  0.9218921877551982  1.0000
  C   C71       1.0  0.030446127820170706  0.8225358106192047  0.578107812472943  1.0000
  C   C72       1.0  0.9695538722687735  0.8225358106192047  0.921892187547393  1.0000
  C   C73       1.0  0.42759162568803116  0.8407893833582013  0.5270125900977805  1.0000
  C   C74       1.0  0.5724083744009133  0.8407893833582013  0.9729874099225554  1.0000
  C   C75       1.0  0.9275916256175626  0.3407893841840809  0.5270125898899752  1.0000
  C   C76       1.0  0.0724083744713817  0.3407893841840809  0.9729874101303606  1.0000
  C   C77       1.0  0.5724083745064505  0.15921061630619146  0.47298741014809875  1.0000
  C   C78       1.0  0.4275916257935685  0.15921061630619146  0.027012590323323916  1.0000
  C   C79       1.0  0.07240837456114156  0.6592106167964638  0.4729874097999712  1.0000
  C   C80       1.0  0.9275916257231  0.6592106167964638  0.027012590115518653  1.0000
  C   C81       1.0  0.28745177296422436  0.6699754923043347  0.31011494537326095  1.0000
  C   C82       1.0  0.7125482268050789  0.6699754923043347  0.18988505454151783  1.0000
  C   C83       1.0  0.7874517728937559  0.16997549181406243  0.3101149451654557  1.0000
  C   C84       1.0  0.21254822687554728  0.16997549181406243  0.1898850547493231  1.0000
  C   C85       1.0  0.7125482267153189  0.33002450736005806  0.6898850548719072  1.0000
  C   C86       1.0  0.2874517733736254  0.33002450736005806  0.8101149451484286  1.0000
  C   C87       1.0  0.21254822677000995  0.8300245078503303  0.6898850545237797  1.0000
  C   C88       1.0  0.7874517733189343  0.8300245078503303  0.8101149454965563  1.0000
  C   C89       1.0  0.5452833446055757  0.7419613093228453  0.5266418933582052  1.0000
  C   C90       1.0  0.4547166549684302  0.7419613093228453  0.9733581066614194  1.0000
  C   C91       1.0  0.045283344676044245  0.24196131014872493  0.5266418935660105  1.0000
  C   C92       1.0  0.9547166554129001  0.24196131014872493  0.9733581064543253  1.0000
  C   C93       1.0  0.45471665505819  0.25803869034154736  0.47335810633103015  1.0000
  C   C94       1.0  0.5452833447111132  0.25803869034154736  0.026641893583748674  1.0000
  C   C95       1.0  0.954716655003499  0.7580386895156678  0.4733581066791577  1.0000
  C   C96       1.0  0.045283344781581615  0.7580386895156678  0.026641893791553937  1.0000
  C   C97       1.0  0.3384666135860312  0.773097574834128  0.34526909768127717  1.0000
  C   C98       1.0  0.6615333866982104  0.773097574834128  0.1547309022342128  1.0000
  C   C99       1.0  0.8384666135155628  0.27309757434385573  0.3452690974734719  1.0000
  C   C100      1.0  0.1615333862537405  0.27309757434385573  0.15473090244130694  1.0000
  C   C101      1.0  0.6615333866084505  0.22690242483026477  0.6547309025646022  1.0000
  C   C102      1.0  0.3384666134804938  0.22690242483026477  0.8452690974557338  1.0000
  C   C103      1.0  0.16153338666314151  0.7269024253205372  0.6547309022164747  1.0000
  C   C104      1.0  0.8384666134258029  0.7269024253205372  0.8452690978038613  1.0000
  C   C105      1.0  0.29268537112893  0.7563830323827757  0.46747141831779415  1.0000
  C   C106      1.0  0.7073146291553115  0.7563830323827757  0.03252858159769575  1.0000
  C   C107      1.0  0.7926853710584614  0.25638303189250344  0.4674714181099888  1.0000
  C   C108      1.0  0.2073146292257801  0.25638303189250344  0.032528581805501014  1.0000
  C   C109      1.0  0.7073146290655518  0.2436169685977689  0.532528581928085  1.0000
  C   C110      1.0  0.29268537102339265  0.2436169685977689  0.9674714180922507  1.0000
  C   C111      1.0  0.20731462912024268  0.7436169677718893  0.5325285815799575  1.0000
  C   C112      1.0  0.7926853709687016  0.7436169677718893  0.9674714184403782  1.0000
  C   C113      1.0  0.49999999989254035  0.3144432742872569  0.2500000002353558  1.0000
  C   C114      1.0  0.9999999999472313  0.8144432747775292  0.2499999998872283  1.0000
  C   C115      1.0  0.49999999978700294  0.685556725377136  0.7500000000098123  1.0000
  C   C116      1.0  0.9999999998574715  0.18555672620301547  0.7500000002176176  1.0000
  C   C117      1.0  0.43553707850578155  0.4143636332488733  0.22894408974716648  1.0000
  C   C118      1.0  0.5644629217942375  0.4143636332488733  0.27105591072425633  1.0000
  C   C119      1.0  0.935537078435313  0.9143636337391456  0.22894408953936118  1.0000
  C   C120      1.0  0.06446292184892853  0.9143636337391456  0.27105591037612875  1.0000
  C   C121      1.0  0.5644629216887002  0.5856363664155194  0.7710559104987128  1.0000
  C   C122      1.0  0.43553707840024414  0.5856363664155194  0.728944089521623  1.0000
  C   C123      1.0  0.06446292175916868  0.08563636724139899  0.771055910706518  1.0000
  C   C124      1.0  0.9355370783297755  0.08563636724139899  0.7289440893138177  1.0000
  N   N1        1.0  0.3478696457081294  0.7653840367549528  0.42442813949297126  1.0000
  N   N2        1.0  0.6521303540611738  0.7653840367549528  0.0755718604218076  1.0000
  N   N3        1.0  0.8478696456534384  0.26538403626468055  0.4244281398410988  1.0000
  N   N4        1.0  0.15213035411586476  0.26538403626468055  0.07557186007368007  1.0000
  N   N5        1.0  0.6521303544705749  0.23461596290943992  0.5755718601969753  1.0000
  N   N6        1.0  0.3478696456183695  0.23461596290943992  0.9244281398233604  1.0000
  N   N7        1.0  0.15213035402610492  0.7346159633997122  0.5755718604040694  1.0000
  N   N8        1.0  0.847869645547901  0.7346159633997122  0.9244281396155554  1.0000
  O   O1        1.0  0.18380828412900704  0.8651165940130937  0.4038303318305747  1.0000
  O   O2        1.0  0.8161917156402961  0.8651165940130937  0.0961696680842041  1.0000
  O   O3        1.0  0.6838082840743162  0.36511659352282133  0.40383033217870223  1.0000
  O   O4        1.0  0.31619171571076454  0.36511659352282133  0.09616966829200936  1.0000
  O   O5        1.0  0.8161917160496972  0.13488340696745096  0.5961696678593718  1.0000
  O   O6        1.0  0.1838082840392472  0.13488340696745096  0.9038303321609641  1.0000
  O   O7        1.0  0.31619171560522724  0.6348834061415715  0.5961696680664659  1.0000
  O   O8        1.0  0.6838082839687787  0.6348834061415715  0.9038303319531586  1.0000
  O   O9        1.0  0.49999999989254035  0.1515412627598314  0.2500000002353558  1.0000
  O   O10       1.0  0.9999999999472313  0.6515412632501036  0.2499999998872283  1.0000
  O   O11       1.0  0.49999999978700294  0.8484587369045614  0.7500000000098123  1.0000
  O   O12       1.0  0.9999999998574715  0.3484587364142891  0.7500000002176176  1.0000
  Cl  Cl1       1.0  0.3027707189853515  0.8085406168286728  0.09701651464373173  1.0000
  Cl  Cl2       1.0  0.6972292807839516  0.8085406168286728  0.4029834852710471  1.0000
  Cl  Cl3       1.0  0.8027707189306604  0.3085406163384005  0.09701651499185927  1.0000
  Cl  Cl4       1.0  0.19722928085442015  0.3085406163384005  0.4029834854788524  1.0000
  Cl  Cl5       1.0  0.6972292806784143  0.19145938415187178  0.9029834850455036  1.0000
  Cl  Cl6       1.0  0.3027707194105301  0.19145938415187178  0.5970165149748322  1.0000
  Cl  Cl7       1.0  0.19722928074888277  0.6914593833259922  0.9029834852533088  1.0000
  Cl  Cl8       1.0  0.8027707193400615  0.6914593833259922  0.5970165147670269  1.0000
  Cl  Cl9       1.0  0.6257052907712592  0.7256790977381229  0.5710615304041239  1.0000
  Cl  Cl10      1.0  0.3742947088027467  0.7256790977381229  0.9289384696155009  1.0000
  Cl  Cl11      1.0  0.1257052908417277  0.22567909856400242  0.5710615306119291  1.0000
  Cl  Cl12      1.0  0.8742947092472165  0.22567909856400242  0.9289384694084069  1.0000
  Cl  Cl13      1.0  0.37429470889250654  0.2743209019262699  0.4289384692851115  1.0000
  Cl  Cl14      1.0  0.6257052908767966  0.2743209019262699  0.07106153062966729  1.0000
  Cl  Cl15      1.0  0.8742947088378156  0.7743209024165423  0.428938469633239  1.0000
  Cl  Cl16      1.0  0.1257052909472651  0.7743209024165423  0.07106153083747255  1.0000
