data_image0
_chemical_formula_structural       H32C28N4O8
_chemical_formula_sum              "H32 C28 N4 O8"
_cell_length_a       11.59132604024389
_cell_length_b       5.231775175369171
_cell_length_c       12.121027518962483
_cell_angle_alpha    90.0
_cell_angle_beta     110.66200548680744
_cell_angle_gamma    90.0

_space_group_name_H-M_alt    "P 1"
_space_group_IT_number       1

loop_
  _space_group_symop_operation_xyz
  'x, y, z'

loop_
  _atom_site_type_symbol
  _atom_site_label
  _atom_site_symmetry_multiplicity
  _atom_site_fract_x
  _atom_site_fract_y
  _atom_site_fract_z
  _atom_site_occupancy
  H   H1        1.0  0.6943323793475059  0.8995626727534038  0.5306764587981715  1.0000
  H   H2        1.0  0.30566762090239846  0.39956267231083625  0.9693235406080841  1.0000
  H   H3        1.0  0.30566762126218894  0.10043732813173141  0.46932354071932775  1.0000
  H   H4        1.0  0.694332378785287  0.6004373285742991  0.030676458602270786  1.0000
  H   H5        1.0  0.0035911573355745237  0.027822552598455026  0.30781400811321613  1.0000
  H   H6        1.0  0.9964088427163419  0.5278225530410227  0.19218599203488376  1.0000
  H   H7        1.0  0.9964088432785608  0.9721774463752832  0.6921859922307846  1.0000
  H   H8        1.0  0.003591156975784074  0.47217744784411264  0.8078140080019728  1.0000
  H   H9        1.0  0.9118033614170736  0.2931866027465074  0.46262224689919795  1.0000
  H   H10       1.0  0.08819663863484285  0.7931866031890751  0.037377753248901906  1.0000
  H   H11       1.0  0.0881966382750524  0.7068133962272308  0.5373777531376585  1.0000
  H   H12       1.0  0.9118033610572833  0.20681339578466318  0.9626222467879545  1.0000
  H   H13       1.0  0.829475571297653  0.5143197308378467  0.514542762429969  1.0000
  H   H14       1.0  0.17052442803024181  0.014319730395278993  0.9854572366691426  1.0000
  H   H15       1.0  0.17052442839003226  0.48568027004728864  0.48545723678038605  1.0000
  H   H16       1.0  0.8294755716574436  0.9856802704898563  0.014542762541212435  1.0000
  H   H17       1.0  0.7724694074585887  0.3875206812297584  0.2518996282838384  1.0000
  H   H18       1.0  0.22753059259332786  0.887520679760929  0.2481003718642615  1.0000
  H   H19       1.0  0.22753059223353742  0.6124793196553769  0.748100371753018  1.0000
  H   H20       1.0  0.7724694080208074  0.11247931921280925  0.7518996284797391  1.0000
  H   H21       1.0  0.6886702076830679  0.6057634595845127  0.3044261538322889  1.0000
  H   H22       1.0  0.311329792364408  0.10576346105334224  0.1955738454893096  1.0000
  H   H23       1.0  0.3113297920046176  0.3942365393892254  0.6955738453780662  1.0000
  H   H24       1.0  0.6886702073232774  0.8942365398317932  0.8044261537210453  1.0000
  H   H25       1.0  0.6741950366100935  0.5240975764610372  0.6845464756954184  1.0000
  H   H26       1.0  0.325804962722242  0.02409757601846946  0.8154535242301947  1.0000
  H   H27       1.0  0.3258049630820325  0.47590242442409825  0.315453524341438  1.0000
  H   H28       1.0  0.674195036969884  0.9759024229552689  0.18454647580666186  1.0000
  H   H29       1.0  0.4925268278563625  0.8093284302304178  0.3475263192345879  1.0000
  H   H30       1.0  0.5074731721955541  0.3093284297878502  0.15247368091351204  1.0000
  H   H31       1.0  0.5074731718357637  0.19067157065471751  0.6524736808022686  1.0000
  H   H32       1.0  0.492526827496572  0.6906715710972852  0.8475263191233444  1.0000
  C   C1        1.0  0.7289924294399605  0.17686498730991562  0.440445776175619  1.0000
  C   C2        1.0  0.271007570611956  0.6768649877524834  0.059554223972480974  1.0000
  C   C3        1.0  0.2710075702521656  0.8231350116638226  0.5595542238612375  1.0000
  C   C4        1.0  0.72899242908017  0.32313501122125493  0.9404457760643755  1.0000
  C   C5        1.0  0.8207580509955459  0.3821954944497218  0.4414444198335547  1.0000
  C   C6        1.0  0.17924194905637056  0.8821954948922895  0.05855558031454524  1.0000
  C   C7        1.0  0.17924194869658014  0.6178045045240165  0.5585555802033018  1.0000
  C   C8        1.0  0.8207580506357556  0.11780450599284592  0.9414444197223113  1.0000
  C   C9        1.0  0.7813097249166683  0.524312186218216  0.32347410603087423  1.0000
  C   C10       1.0  0.21869027513524825  0.024312185775648254  0.1765258941172257  1.0000
  C   C11       1.0  0.21869027569746713  0.4756878127555223  0.6765258943131264  1.0000
  C   C12       1.0  0.7813097245568777  0.9756878131980901  0.8234741059196307  1.0000
  C   C13       1.0  0.8663841627636184  0.7245094471653271  0.3189850078258933  1.0000
  C   C14       1.0  0.13361583728385742  0.22450944672275938  0.18101499149570519  1.0000
  C   C15       1.0  0.13361583784607628  0.2754905518084112  0.6810149916916058  1.0000
  C   C16       1.0  0.8663841624038281  0.7754905522509788  0.81898500771465  1.0000
  C   C17       1.0  0.9377926412296348  0.8884643154934511  0.3128336603104593  1.0000
  C   C18       1.0  0.06220735882228165  0.38846431696228045  0.18716633983764058  1.0000
  C   C19       1.0  0.0622073584624912  0.11153568348028722  0.6871663397263971  1.0000
  C   C20       1.0  0.9377926417918537  0.611535683922855  0.8128336605063601  1.0000
  C   C21       1.0  0.5961247372445765  0.5137066043382407  0.6018759049959077  1.0000
  C   C22       1.0  0.4038752630097684  0.01370660389567293  0.8981240952368497  1.0000
  C   C23       1.0  0.40387526336955887  0.48629339654689474  0.39812409534809295  1.0000
  C   C24       1.0  0.5961247366823577  0.9862933950780653  0.10187590480000693  1.0000
  C   C25       1.0  0.49515368355138434  0.6710344313968487  0.41556730406015097  1.0000
  C   C26       1.0  0.5048463155785229  0.17103443095428103  0.08443269578080474  1.0000
  C   C27       1.0  0.5048463161407417  0.32896556948828665  0.5844326959767054  1.0000
  C   C28       1.0  0.49515368411360317  0.8289655699308544  0.9155673042560517  1.0000
  N   N1        1.0  0.5910049898811587  0.6838795418512096  0.5176196102153197  1.0000
  N   N2        1.0  0.40899500945117695  0.18387954140864188  0.9823803897102934  1.0000
  N   N3        1.0  0.4089950098109673  0.3161204571225287  0.4823803898215369  1.0000
  N   N4        1.0  0.5910049902409491  0.8161204575650964  0.017619610326563045  1.0000
  O   O1        1.0  0.6313196239265982  0.14489841107258736  0.3570892849125095  1.0000
  O   O2        1.0  0.3686803761253183  0.644898411515155  0.14291071523559037  1.0000
  O   O3        1.0  0.36868037668753717  0.855101589812548  0.6429107154314911  1.0000
  O   O4        1.0  0.6313196235668078  0.3551015893699803  0.857089284801266  1.0000
  O   O5        1.0  0.7627884339859278  0.03565032015865226  0.5383660800042543  1.0000
  O   O6        1.0  0.23721156534640783  0.53565032060122  0.9616339199213587  1.0000
  O   O7        1.0  0.23721156570619825  0.9643496807264831  0.4616339200326021  1.0000
  O   O8        1.0  0.7627884343457182  0.46434968028391543  0.03836608011549784  1.0000
