data_image0
_chemical_formula_structural       H34C26N10O6Br2
_chemical_formula_sum              "H34 C26 N10 O6 Br2"
_cell_length_a       6.393076095138332
_cell_length_b       8.563569567936783
_cell_length_c       13.872160679147704
_cell_angle_alpha    102.93853170828187
_cell_angle_beta     95.95669677034772
_cell_angle_gamma    96.1285673068546

_space_group_name_H-M_alt    "P 1"
_space_group_IT_number       1

loop_
  _space_group_symop_operation_xyz
  'x, y, z'

loop_
  _atom_site_type_symbol
  _atom_site_label
  _atom_site_symmetry_multiplicity
  _atom_site_fract_x
  _atom_site_fract_y
  _atom_site_fract_z
  _atom_site_occupancy
  H   H1        1.0  0.02397247615883616  0.601054518506136  0.11648984727783192  1.0000
  H   H2        1.0  0.9760275233725871  0.39894548061826285  0.883510152342745  1.0000
  H   H3        1.0  0.2147187813002159  0.5144213517496136  0.04564366909941163  1.0000
  H   H4        1.0  0.7852812183729607  0.48557864854332794  0.9543563305067019  1.0000
  H   H5        1.0  0.14210669711671123  0.6412423045992968  0.4581995858566015  1.0000
  H   H6        1.0  0.8578933026183057  0.3587576948350186  0.5418004145099773  1.0000
  H   H7        1.0  0.3503452603760544  0.5511687967697303  0.5110862759993892  1.0000
  H   H8        1.0  0.6496547392971221  0.44883120352321115  0.4889137236067244  1.0000
  H   H9        1.0  0.6728151295337399  0.29304050971391393  0.07568862490550032  1.0000
  H   H10       1.0  0.3271848701394367  0.7069594905790277  0.9243113747006133  1.0000
  H   H11       1.0  0.11364649149002672  0.15910476259491385  0.35527929668855884  1.0000
  H   H12       1.0  0.8863535081831498  0.8408952376980277  0.6447207029175547  1.0000
  H   H13       1.0  0.8257317750374519  0.3221311417637491  0.388825612818403  1.0000
  H   H14       1.0  0.1742682264068278  0.6778688588573456  0.6111743875376638  1.0000
  H   H15       1.0  0.9650796724471309  0.13283534813103873  0.03960318967965939  1.0000
  H   H16       1.0  0.034920327287885876  0.8671646513032766  0.9603968106869193  1.0000
  H   H17       1.0  0.6304348705218698  0.5473433071955264  0.10861009879988463  1.0000
  H   H18       1.0  0.3695651293549004  0.4526566934073316  0.8913899015522307  1.0000
  H   H19       1.0  0.7713165844204689  0.8508678718225071  0.14658003045749604  1.0000
  H   H20       1.0  0.22868341525270777  0.14913212847043447  0.8534199691486175  1.0000
  H   H21       1.0  0.5096079543029782  0.7683482142998929  0.08530001065727122  1.0000
  H   H22       1.0  0.4903920454320384  0.23165178513442242  0.9146999897093074  1.0000
  H   H23       1.0  0.7158718593811265  0.8039359480221259  0.012952714799251887  1.0000
  H   H24       1.0  0.2841281402920502  0.19606405227081566  0.9870472848068618  1.0000
  H   H25       1.0  0.7305493341241132  0.031156367350438457  0.5510571311413485  1.0000
  H   H26       1.0  0.2694506669748198  0.9688436317921971  0.44894286848317994  1.0000
  H   H27       1.0  0.5600545532120021  0.8482324749881303  0.5320179787979321  1.0000
  H   H28       1.0  0.43994544666476804  0.15176752561472762  0.46798202155418317  1.0000
  H   H29       1.0  0.5269044179679933  0.8298336856876114  0.34380405632043004  1.0000
  H   H30       1.0  0.4730955819087768  0.17016631491524653  0.6561959440316852  1.0000
  H   H31       1.0  0.7094341613546354  0.00467533853359561  0.36724800972186467  1.0000
  H   H32       1.0  0.2905658383803812  0.9953246609007198  0.632751990644714  1.0000
  H   H33       1.0  0.021118267682596364  0.6853249477146537  0.3005283344368905  1.0000
  H   H34       1.0  0.9788817320524205  0.3146750517196617  0.6994716659296882  1.0000
  C   C1        1.0  0.2814135248012752  0.5370510863513926  0.19361726397558487  1.0000
  C   C2        1.0  0.7185864766430047  0.462948914269702  0.806382736380482  1.0000
  C   C3        1.0  0.553803282805295  0.4184467908457476  0.25595595629997536  1.0000
  C   C4        1.0  0.4461967170714751  0.5815532097571103  0.74404404405214  1.0000
  C   C5        1.0  0.3292133269572254  0.5348583523841989  0.35948875172403255  1.0000
  C   C6        1.0  0.6707866727159513  0.4651416479087426  0.640511247882081  1.0000
  C   C7        1.0  0.7307321438695191  0.3228806413624479  0.23552736464343524  1.0000
  C   C8        1.0  0.2692678556619041  0.677119357761951  0.7644726349771416  1.0000
  C   C9        1.0  0.05810399907123254  0.1368006150349723  0.19517072651927736  1.0000
  C   C10       1.0  0.941896000601944  0.8631993852579691  0.8048292730868362  1.0000
  C   C11       1.0  0.7722961941239419  0.26703617791241274  0.1370633680743407  1.0000
  C   C12       1.0  0.22770380554923453  0.7329638223805287  0.8629366315317727  1.0000
  C   C13       1.0  0.019267810407352145  0.18853526856184868  0.293533032008929  1.0000
  C   C14       1.0  0.9807321893276647  0.8114647308724666  0.7064669683576497  1.0000
  C   C15       1.0  0.8556395295800433  0.2813169598939447  0.31253702227966224  1.0000
  C   C16       1.0  0.14436046995138002  0.7186830392304542  0.6874629773409147  1.0000
  C   C17       1.0  0.9359873390259058  0.1752604364654636  0.11643411990405826  1.0000
  C   C18       1.0  0.06401266050551754  0.8247395626589353  0.8835658797165187  1.0000
  C   C19       1.0  0.6799698200239177  0.7660998758371991  0.08059495754462045  1.0000
  C   C20       1.0  0.3200301796492589  0.2339001244557423  0.919405042061493  1.0000
  C   C21       1.0  0.5958673945967778  0.954041609831396  0.5009332048363502  1.0000
  C   C22       1.0  0.40413260527999234  0.04595839077146202  0.49906679551576516  1.0000
  C   C23       1.0  0.6614548472015124  0.8999649018580163  0.3975671209933574  1.0000
  C   C24       1.0  0.3385451523299109  0.10003509726638274  0.6024328786272196  1.0000
  C   C25       1.0  0.8415935614850365  0.7997517102369467  0.39352798915110176  1.0000
  C   C26       1.0  0.15840643961389647  0.2002482889056889  0.6064720104734266  1.0000
  N   N1        1.0  0.21476523400506348  0.5783752935338602  0.2838489169094482  1.0000
  N   N2        1.0  0.7852347658717065  0.42162470706899774  0.7161510834426671  1.0000
  N   N3        1.0  0.4580494878476587  0.46410727067331553  0.17787177546886537  1.0000
  N   N4        1.0  0.5419505120291114  0.5358927299295424  0.82212822488325  1.0000
  N   N5        1.0  0.49763736685559595  0.4504586538755685  0.34822736865629383  1.0000
  N   N6        1.0  0.5023626326758274  0.5495413452488304  0.6517726309642831  1.0000
  N   N7        1.0  0.17418683190635242  0.5694182215517024  0.1139424465546807  1.0000
  N   N8        1.0  0.8258131676250708  0.4305817775726964  0.8860575530658962  1.0000
  N   N9        1.0  0.26890818559136104  0.5762473142538416  0.449841003810231  1.0000
  N   N10       1.0  0.731091814285409  0.4237526863490164  0.5501589965418843  1.0000
  O   O1        1.0  0.7325283537035941  0.6056185828642298  0.0736327256439897  1.0000
  O   O2        1.0  0.26747164596958256  0.3943814174287118  0.9263672739621239  1.0000
  O   O3        1.0  0.9292508586249049  0.7626823934834217  0.46766536051456314  1.0000
  O   O4        1.0  0.07074914125186527  0.23731760711943634  0.5323346398375522  1.0000
  O   O5        1.0  0.8972814422729812  0.7560177904574648  0.30274989860996226  1.0000
  O   O6        1.0  0.102718558967705  0.2439822098537134  0.6972501010001027  1.0000
  Br  Br1       1.0  0.2783563898662966  0.007069518941441461  0.16744819785235493  1.0000
  Br  Br2       1.0  0.7216436098068799  0.9929304813514999  0.8325518017537586  1.0000
