data_image0
_chemical_formula_structural       H26C24N10O4Br2
_chemical_formula_sum              "H26 C24 N10 O4 Br2"
_cell_length_a       3.8159332530974654
_cell_length_b       11.437022256512137
_cell_length_c       15.554197082062084
_cell_angle_alpha    75.74657332519159
_cell_angle_beta     90.7591704132789
_cell_angle_gamma    87.23967346201088

_space_group_name_H-M_alt    "P 1"
_space_group_IT_number       1

loop_
  _space_group_symop_operation_xyz
  'x, y, z'

loop_
  _atom_site_type_symbol
  _atom_site_label
  _atom_site_symmetry_multiplicity
  _atom_site_fract_x
  _atom_site_fract_y
  _atom_site_fract_z
  _atom_site_occupancy
  H   H1        1.0  0.39151402362874427  0.47798082849942847  0.5710260237691482  1.0000
  H   H2        1.0  0.6084859764950559  0.5220191714750497  0.42897397628730893  1.0000
  H   H3        1.0  0.34288888663975325  0.5398721031573387  0.6656283686310862  1.0000
  H   H4        1.0  0.6571111134840468  0.46012789681713945  0.3343716314253712  1.0000
  H   H5        1.0  0.7242780302763253  0.9093930391643255  0.6676046456636239  1.0000
  H   H6        1.0  0.27572196984747477  0.09060696081015261  0.33239535439283346  1.0000
  H   H7        1.0  0.9080830908939622  0.004095777348587475  0.5733380589219919  1.0000
  H   H8        1.0  0.09191690922983785  0.9959042226258907  0.4266619411344656  1.0000
  H   H9        1.0  0.7736355616327478  0.9787131888024502  0.3066437162723323  1.0000
  H   H10       1.0  0.22636443849105242  0.021286811172027974  0.6933562837841252  1.0000
  H   H11       1.0  0.9732737656906947  0.009353931059496058  0.15146454954362346  1.0000
  H   H12       1.0  0.026726234392761034  0.9906460691401199  0.8485354498493168  1.0000
  H   H13       1.0  0.07340441819416334  0.6001770508333477  0.35664419810640224  1.0000
  H   H14       1.0  0.9265955793086547  0.39982294914224414  0.6433558019429667  1.0000
  H   H15       1.0  0.2728315941753079  0.6287610849773632  0.2032943446827221  1.0000
  H   H16       1.0  0.7271684059484923  0.3712389149971149  0.7967056553737353  1.0000
  H   H17       1.0  0.44383587667289676  0.7294723692592658  0.697505423550351  1.0000
  H   H18       1.0  0.5561641234509034  0.27052763071521235  0.30249457650610634  1.0000
  H   H19       1.0  0.9176955925936533  0.6935856555959563  0.8948601064560207  1.0000
  H   H20       1.0  0.08230440753014678  0.3064143443785219  0.10513989360043675  1.0000
  H   H21       1.0  0.3514870295534538  0.6611049902511312  0.9324718039763574  1.0000
  H   H22       1.0  0.6485129705703463  0.33889500972334685  0.06752819608009991  1.0000
  H   H23       1.0  0.2597000548237011  0.43535005889798845  0.9496597241948009  1.0000
  H   H24       1.0  0.740299945300099  0.5646499410764897  0.050340275861656354  1.0000
  H   H25       1.0  0.8199473823838117  0.4712165380499345  0.9189903217869739  1.0000
  H   H26       1.0  0.18005261773998832  0.5287834619245437  0.08100967826948346  1.0000
  C   C1        1.0  0.5615393275881788  0.650207341665164  0.559176438728222  1.0000
  C   C2        1.0  0.43846066991463906  0.349792658310428  0.44082356132114686  1.0000
  C   C3        1.0  0.8009355798188652  0.768252422937707  0.43569669456287596  1.0000
  C   C4        1.0  0.19906442030493493  0.23174757703677115  0.5643033054935813  1.0000
  C   C5        1.0  0.9113946385513373  0.7871597711716234  0.34262794402156627  1.0000
  C   C6        1.0  0.08860536157246285  0.21284022880285483  0.657372056034891  1.0000
  C   C7        1.0  0.8869006873274795  0.9025206217811258  0.28419283092633535  1.0000
  C   C8        1.0  0.11309931279632057  0.09747937819335249  0.7158071691301219  1.0000
  C   C9        1.0  0.7377517032059582  0.839486516014981  0.5598875825670784  1.0000
  C   C10       1.0  0.26224829691784185  0.16051348395949722  0.440112417489379  1.0000
  C   C11       1.0  0.1372762799970624  0.8210293541598462  0.16895855638196014  1.0000
  C   C12       1.0  0.8627237201267377  0.17897064581463196  0.8310414436744972  1.0000
  C   C13       1.0  0.9975746276862248  0.920094639551676  0.1971418788436619  1.0000
  C   C14       1.0  0.0024253724375751795  0.07990536042280216  0.8028581212127954  1.0000
  C   C15       1.0  0.04654635514178919  0.6895377706261011  0.3117527094967438  1.0000
  C   C16       1.0  0.9534536449820108  0.3104622293483771  0.6882472905597136  1.0000
  C   C17       1.0  0.16277547536354275  0.7055309362113297  0.2254370018127286  1.0000
  C   C18       1.0  0.8372245247602574  0.2944690637631484  0.7745629982437289  1.0000
  C   C19       1.0  0.13769970123457909  0.626108888355281  0.8994341124388936  1.0000
  C   C20       1.0  0.8623002988488767  0.37389111184433516  0.10056588695404668  1.0000
  C   C21       1.0  0.24418989270145286  0.6289002836992635  0.8060224538602252  1.0000
  C   C22       1.0  0.7558101074223472  0.3710997162752146  0.19397754619623217  1.0000
  C   C23       1.0  0.04263233462965418  0.5013600532954047  0.9520781946670777  1.0000
  C   C24       1.0  0.9573676654941459  0.49863994667907346  0.04792180538937974  1.0000
  N   N1        1.0  0.669235912163298  0.6620305327587976  0.47450364337377093  1.0000
  N   N2        1.0  0.3307640879605021  0.33796946721568055  0.5254963566826863  1.0000
  N   N3        1.0  0.5895123536869535  0.7377952804966391  0.6035955269181588  1.0000
  N   N4        1.0  0.4104876464368466  0.26220471947783897  0.3964044731382987  1.0000
  N   N5        1.0  0.41893386015720174  0.5484892018319956  0.6009239464331619  1.0000
  N   N6        1.0  0.5810661399665983  0.4515107981424827  0.39907605362329546  1.0000
  N   N7        1.0  0.8441917370636235  0.859365015218457  0.47469947546407115  1.0000
  N   N8        1.0  0.15580826301983225  0.14063498498115914  0.5253005239288692  1.0000
  N   N9        1.0  0.7829289663103084  0.9259858972818155  0.6026098183089182  1.0000
  N   N10       1.0  0.21707103381349188  0.07401410269266252  0.3973901817475391  1.0000
  O   O1        1.0  0.35840294283580276  0.7341590360386893  0.7615611932910277  1.0000
  O   O2        1.0  0.6415970572879973  0.2658409639357887  0.23843880676542972  1.0000
  O   O3        1.0  0.22563627643122466  0.5396885164566235  0.7747584266224999  1.0000
  O   O4        1.0  0.7743637236925754  0.46031148351785467  0.22524157343395748  1.0000
  Br  Br1       1.0  0.2988199795933939  0.8439607822477169  0.05119575719894223  1.0000
  Br  Br2       1.0  0.7011800205304062  0.15603921772676124  0.9488042428575151  1.0000
