data_image0
_chemical_formula_structural       H69C62N4O10Cl7
_chemical_formula_sum              "H69 C62 N4 O10 Cl7"
_cell_length_a       11.460518797470856
_cell_length_b       12.540220677240471
_cell_length_c       12.939948985627565
_cell_angle_alpha    112.56719138580362
_cell_angle_beta     99.30818027697647
_cell_angle_gamma    113.67616855682473

_space_group_name_H-M_alt    "P 1"
_space_group_IT_number       1

loop_
  _space_group_symop_operation_xyz
  'x, y, z'

loop_
  _atom_site_type_symbol
  _atom_site_label
  _atom_site_symmetry_multiplicity
  _atom_site_fract_x
  _atom_site_fract_y
  _atom_site_fract_z
  _atom_site_occupancy
  H   H1        1.0  0.6200880715926689  0.3076793896980764  0.9120761483747526  1.0000
  H   H2        1.0  0.45496708579599715  0.15165588365844515  0.8252226350692369  1.0000
  H   H3        1.0  0.8722518821677921  0.9362957811525452  0.8199978714461238  1.0000
  H   H4        1.0  0.7152231131607024  0.9417710191237111  0.8085672523611082  1.0000
  H   H5        1.0  0.6814785498009773  0.6013917949055532  0.832274796944059  1.0000
  H   H6        1.0  0.8205112165697408  0.768454942897339  0.9441881746233614  1.0000
  H   H7        1.0  0.04418875066037614  0.20468017550735745  0.8329888181561921  1.0000
  H   H8        1.0  0.11963516706072078  0.16933606208471652  0.9369799296310299  1.0000
  H   H9        1.0  0.21138166706954561  0.23325508262121777  0.8584625189141679  1.0000
  H   H10       1.0  0.6110035626899774  0.6307434354031645  0.1700317387226837  1.0000
  H   H11       1.0  0.5898928784132427  0.6771854176172809  0.3099366463491381  1.0000
  H   H12       1.0  0.602178740868929  0.7776323410138862  0.2423662076247387  1.0000
  H   H13       1.0  0.125132023923184  0.7153738355781214  0.2146499121934239  1.0000
  H   H14       1.0  0.9996236553593101  0.5946994149984951  0.06948528512643573  1.0000
  H   H15       1.0  0.14579933816225152  0.7357524537231641  0.08997274418538193  1.0000
  H   H16       1.0  0.9522951630254991  0.42972903505049725  0.897526054544429  1.0000
  H   H17       1.0  0.9330271031032079  0.27390293726371534  0.869312958098262  1.0000
  H   H18       1.0  0.952845813673601  0.17868135689191847  0.9774696907731395  1.0000
  H   H19       1.0  0.8654541725811887  0.01691965922528247  0.04793452373212841  1.0000
  H   H20       1.0  0.715015619073243  0.027541462284021663  0.1657413030413757  1.0000
  H   H21       1.0  0.7211940833780425  0.35430914161699295  0.12364555421034579  1.0000
  H   H22       1.0  0.6253661030649383  0.30320682548164113  0.24690976988016416  1.0000
  H   H23       1.0  0.4079740358190333  0.10771463152248213  0.1717707426647983  1.0000
  H   H24       1.0  0.47794343318224375  9.089364641959943e-05  0.14315138943495417  1.0000
  H   H25       1.0  0.6076610058831261  0.10530425322796187  0.511393723163401  1.0000
  H   H26       1.0  0.6334828092714243  0.26682225922972386  0.5746457583371732  1.0000
  H   H27       1.0  0.027572599888810466  0.9354625220625362  0.18649616300259456  1.0000
  H   H28       1.0  0.2100982202289354  0.010673273482519181  0.24953299839453058  1.0000
  H   H29       1.0  0.4865981786024157  0.8611362842652714  0.23204575926132964  1.0000
  H   H30       1.0  0.3340411619888321  0.8478566763623199  0.25139116467208883  1.0000
  H   H31       1.0  0.2993374859364831  0.9492817470362478  0.3990551689832497  1.0000
  H   H32       1.0  0.1866260763542485  0.9641448100709035  0.546049296225369  1.0000
  H   H33       1.0  0.2195866753012284  0.8819117164220442  0.6887245372420452  1.0000
  H   H34       1.0  0.48129202393073106  0.7625767764164927  0.530293322571964  1.0000
  H   H35       1.0  0.44297322415860163  0.7244933460664467  0.6849523106294163  1.0000
  H   H36       1.0  0.5401462265599826  0.9128087704882395  0.8864700168340933  1.0000
  H   H37       1.0  0.4048107331224429  0.9470801918886502  0.8546614692866679  1.0000
  H   H38       1.0  0.0916292886420246  0.641113363192641  0.8630476803786588  1.0000
  H   H39       1.0  0.2040868933385047  0.5920658110134329  0.9066000228392437  1.0000
  H   H40       1.0  0.35145082892403023  0.27314930692604983  0.017445843287956498  1.0000
  H   H41       1.0  0.4880424507277385  0.40900150254586887  0.019601861931136676  1.0000
  H   H42       1.0  0.6632034352867785  0.5261339160639379  0.39799868600904237  1.0000
  H   H43       1.0  0.5959729184405915  0.4667693273101495  0.5504530243650744  1.0000
  H   H44       1.0  0.35478037564290016  0.3002813957806586  0.5000186485399962  1.0000
  H   H45       1.0  0.24614826979254698  0.24528513604856497  0.14129720783971633  1.0000
  H   H46       1.0  0.07130435865575413  0.1463410213769499  0.2059258843884682  1.0000
  H   H47       1.0  0.17272387254292543  0.1704481702197618  0.6113512253987532  1.0000
  H   H48       1.0  0.00504973358363766  0.03448844125569629  0.5318669616669297  1.0000
  H   H49       1.0  0.6794506004221536  0.0022123068983900263  0.4096293408238206  1.0000
  H   H50       1.0  0.8078610607537108  0.9653957264527696  0.443024088171594  1.0000
  H   H51       1.0  0.8123606138783749  0.040741663034787594  0.35207987567106236  1.0000
  H   H52       1.0  0.2793591084735247  0.3374556018448376  0.7399803422354807  1.0000
  H   H53       1.0  0.29166937631156353  0.4814586346388384  0.8500454667838797  1.0000
  H   H54       1.0  0.31660769034962644  0.47589878899299326  0.7174209306036653  1.0000
  H   H55       1.0  0.9222255380799556  0.5909475182783378  0.7621399832953134  1.0000
  H   H56       1.0  0.7865892484549577  0.45977980788708206  0.7658419471361866  1.0000
  H   H57       1.0  0.7749011182290562  0.46788209897275124  0.631151257779081  1.0000
  H   H58       1.0  0.9346831866914258  0.36705203129610836  0.4620398271822014  1.0000
  H   H59       1.0  0.10512670082286184  0.49307378215632514  0.5453194782999887  1.0000
  H   H60       1.0  0.06041189922100012  0.3357491103461454  0.43659078531693474  1.0000
  H   H61       1.0  0.968589341438982  0.5522766294887901  0.2291527860732996  1.0000
  H   H62       1.0  0.8924999837281039  0.7178947767503244  0.2687905159165453  1.0000
  H   H63       1.0  0.8536449900805588  0.811984390497784  0.4598519530040187  1.0000
  H   H64       1.0  0.9051293275752539  0.747598240219929  0.6136058853912654  1.0000
  H   H65       1.0  0.9838140271132816  0.5872317740357363  0.5761845841648768  1.0000
  H   H66       1.0  0.9412734915055617  0.3612340248387035  0.2847359032809595  1.0000
  H   H67       1.0  0.15365854361849568  0.5256678162347314  0.27707548503230006  1.0000
  H   H68       1.0  0.1728286261763059  0.4057370802594939  0.3060979984865997  1.0000
  H   H69       1.0  0.24618771025814007  0.5728388981239443  0.4253103370838059  1.0000
  C   C1        1.0  0.5461123896344111  0.22440264822933323  0.8225247978834365  1.0000
  C   C2        1.0  0.7729143253297011  0.9066170457729535  0.759291413441798  1.0000
  C   C3        1.0  0.7268140916923174  0.6804394759326801  0.9264552996963323  1.0000
  C   C4        1.0  0.12185764888232388  0.44830987572947717  0.018414839384535846  1.0000
  C   C5        1.0  0.198907075920681  0.38314025295547016  0.0029139970615295343  1.0000
  C   C6        1.0  0.3391417007385108  0.45491955898878433  0.07751085726050815  1.0000
  C   C7        1.0  0.40685653185259163  0.593888061600748  0.1572122883240576  1.0000
  C   C8        1.0  0.3296993624033252  0.658597535522813  0.17055846646167638  1.0000
  C   C9        1.0  0.18758196430625962  0.5866809836487207  0.10353164642645393  1.0000
  C   C10       1.0  0.13947799640513103  0.24088986979114285  0.9035491981591329  1.0000
  C   C11       1.0  0.5602634369665879  0.6737974512338635  0.2231735411897159  1.0000
  C   C12       1.0  0.11007075924972193  0.6610193887339593  0.11937054021243204  1.0000
  C   C13       1.0  0.9709104935973739  0.3757161291068928  0.9414123358359043  1.0000
  C   C14       1.0  0.8395781015461437  0.2753656149416816  0.04282886681575974  1.0000
  C   C15       1.0  0.8819633798265131  0.1814874686169136  0.023374956660814624  1.0000
  C   C16       1.0  0.8332821027327757  0.09087235351906431  0.06533156839302823  1.0000
  C   C17       1.0  0.7479317701089374  0.09584203974404829  0.13007170135449544  1.0000
  C   C18       1.0  0.7083493932802684  0.1922657857867134  0.15221948000140278  1.0000
  C   C19       1.0  0.7502425829831104  0.2779719542223611  0.10505467436985438  1.0000
  C   C20       1.0  0.6357001301870822  0.21709662049515074  0.23802883370722908  1.0000
  C   C21       1.0  0.49489349233525753  0.0984787714296787  0.2062639729519791  1.0000
  C   C22       1.0  0.6339358145245769  0.1909621778957165  0.39837650191581897  1.0000
  C   C23       1.0  0.6692828504698364  0.2041400324843226  0.5205704860332929  1.0000
  C   C24       1.0  0.12256591068589488  0.02144585508009298  0.26189194860243753  1.0000
  C   C25       1.0  0.4022685272109979  0.807685610212177  0.2555921993979939  1.0000
  C   C26       1.0  0.39609147864187505  0.8522369529480053  0.4546447275857373  1.0000
  C   C27       1.0  0.31406396258734837  0.9103430369783243  0.45906493010718263  1.0000
  C   C28       1.0  0.2523163656720684  0.920961541776928  0.5443104449464001  1.0000
  C   C29       1.0  0.27118348776074463  0.8752777740878266  0.6246715149198006  1.0000
  C   C30       1.0  0.35373989492374197  0.8173170482142366  0.6202678638231923  1.0000
  C   C31       1.0  0.41650107315434204  0.8071360677285284  0.5357829519764162  1.0000
  C   C32       1.0  0.37400905264362  0.7638699628515752  0.7039969885409467  1.0000
  C   C33       1.0  0.4300711365436865  0.8678887061555995  0.8390145995841813  1.0000
  C   C34       1.0  0.24782956699178404  0.6747229690518372  0.7947731354700305  1.0000
  C   C35       1.0  0.14543306785494373  0.5888045185439119  0.8280362108989388  1.0000
  C   C36       1.0  0.4190972733029651  0.38252293704078555  0.06702528377802833  1.0000
  C   C37       1.0  0.4600226865882208  0.38897184604079693  0.26022700791518616  1.0000
  C   C38       1.0  0.5577681662708986  0.4527296037923412  0.3764752028041136  1.0000
  C   C39       1.0  0.5190630137623236  0.4192182800425775  0.46106993401642654  1.0000
  C   C40       1.0  0.38372601323838706  0.32522961100541214  0.4326391011307791  1.0000
  C   C41       1.0  0.28570862940228986  0.26357344320224635  0.31758914847758263  1.0000
  C   C42       1.0  0.32337704583696436  0.29542746068318765  0.23093577243330088  1.0000
  C   C43       1.0  0.1392602721424009  0.15830024951889532  0.28475443882270296  1.0000
  C   C44       1.0  0.09144406705030324  0.12188911718122986  0.432434208213409  1.0000
  C   C45       1.0  0.07232928722473678  0.1355532682062584  0.5475657455428247  1.0000
  C   C46       1.0  0.8212657447279681  0.26071708601334814  0.5812186675695415  1.0000
  C   C47       1.0  0.8766096302171262  0.17793360411949916  0.539928187951151  1.0000
  C   C48       1.0  0.017452046081066028  0.22749952031438916  0.5964107376933053  1.0000
  C   C49       1.0  0.10384694028213386  0.36048241528607683  0.6916005493439035  1.0000
  C   C50       1.0  0.048796659574147486  0.44529438560401696  0.7283135137228111  1.0000
  C   C51       1.0  0.9075162424609288  0.3958052496297537  0.6737063599440801  1.0000
  C   C52       1.0  0.7891909093822356  0.039906898862541874  0.4311974619192398  1.0000
  C   C53       1.0  0.2546236644764396  0.4158757419831859  0.7523333418624183  1.0000
  C   C54       1.0  0.8458231153708874  0.48379296577288966  0.7108288656521443  1.0000
  C   C55       1.0  0.9812657593871343  0.5561461884949502  0.39867994424579556  1.0000
  C   C56       1.0  0.9549328206672562  0.5953440374215191  0.3137281042679788  1.0000
  C   C57       1.0  0.91086022698113  0.6876795341926376  0.33547546099735537  1.0000
  C   C58       1.0  0.8909819922230018  0.7419028651749239  0.4429163628002355  1.0000
  C   C59       1.0  0.9175913977896573  0.7045725837905844  0.5284215574941207  1.0000
  C   C60       1.0  0.9620830153216513  0.6122096579833493  0.506362558898314  1.0000
  C   C61       1.0  0.02444154761972606  0.45171692907037037  0.36682215714584665  1.0000
  C   C62       1.0  0.15715709451204876  0.49130153439834195  0.3429732560575061  1.0000
  N   N1        1.0  0.7183390216009334  0.254481219977846  0.36035200825941816  1.0000
  N   N2        1.0  0.2451336625318066  0.6512774660122033  0.6883524736001787  1.0000
  N   N3        1.0  0.09515984998125403  0.1985220994112111  0.3880440107321297  1.0000
  N   N4        1.0  0.032526773732590566  0.41035670988900985  0.4602479400492873  1.0000
  O   O1        1.0  0.05677366874080041  0.8204175719391218  0.8139428715510167  1.0000
  O   O2        1.0  0.16179184360168647  0.8836676911328635  0.019077386687119082  1.0000
  O   O3        1.0  0.25544083927289124  0.03703578731305696  0.9477551994044299  1.0000
  O   O4        1.0  0.04012719322872857  0.985535134192588  0.9725038684209496  1.0000
  O   O5        1.0  0.8808529609273024  0.3707068767327072  0.00893642069898233  1.0000
  O   O6        1.0  0.4674210230197768  0.8424620438877445  0.378526554542007  1.0000
  O   O7        1.0  0.5116453998701216  0.4218474628403725  0.18168111440648715  1.0000
  O   O8        1.0  0.4997836544248058  0.10385590412384926  0.32221504413093827  1.0000
  O   O9        1.0  0.3559786814388525  0.7905202650589073  0.8907848167635072  1.0000
  O   O10       1.0  0.1127819376520716  0.019840056936621414  0.37273005684506033  1.0000
  Cl  Cl1       1.0  0.12940105245645978  0.9312382015482992  0.9381028419741585  1.0000
  Cl  Cl2       1.0  0.6272432039422694  0.1416050207736053  0.7522615492036716  1.0000
  Cl  Cl3       1.0  0.48941446629359553  0.29389488943896597  0.7421136566991758  1.0000
  Cl  Cl4       1.0  0.8014697530241476  0.9796057641824643  0.6656907104054115  1.0000
  Cl  Cl5       1.0  0.6754947243139231  0.7287764477975962  0.6743392652182237  1.0000
  Cl  Cl6       1.0  0.7711588058210173  0.6158311875470551  0.01715084597571933  1.0000
  Cl  Cl7       1.0  0.6048230407769033  0.7280103452108124  0.9578204806911671  1.0000
