data_image0
_chemical_formula_structural       H120C52N8O20Cl8
_chemical_formula_sum              "H120 C52 N8 O20 Cl8"
_cell_length_a       4.61282579638179
_cell_length_b       25.386677356163126
_cell_length_c       15.98202101440662
_cell_angle_alpha    90.0
_cell_angle_beta     99.10139531920088
_cell_angle_gamma    90.0

_space_group_name_H-M_alt    "P 1"
_space_group_IT_number       1

loop_
  _space_group_symop_operation_xyz
  'x, y, z'

loop_
  _atom_site_type_symbol
  _atom_site_label
  _atom_site_symmetry_multiplicity
  _atom_site_fract_x
  _atom_site_fract_y
  _atom_site_fract_z
  _atom_site_occupancy
  H   H1        1.0  0.7718130009249441  0.037474925397003055  0.05471537125670418  1.0000
  H   H2        1.0  0.22818699869507023  0.5374749254725717  0.44528462863958446  1.0000
  H   H3        1.0  0.22818699801865897  0.9625250747541343  0.9452846288945431  1.0000
  H   H4        1.0  0.7718130020550614  0.4625250746785656  0.5547153708744589  1.0000
  H   H5        1.0  0.8072706450973707  0.10505785466062635  0.058239177930705086  1.0000
  H   H6        1.0  0.1927293545226437  0.605057854736195  0.4417608219655836  1.0000
  H   H7        1.0  0.1927293538462325  0.8949421450966036  0.9417608222205422  1.0000
  H   H8        1.0  0.8072706465868583  0.39494214502103486  0.5582391781821312  1.0000
  H   H9        1.0  0.006950448071000972  0.06711194167307526  0.9994185466962076  1.0000
  H   H10       1.0  0.9930495523620899  0.5671119413547365  0.5005814537064659  1.0000
  H   H11       1.0  0.993049550872602  0.932888058478062  0.0005814534550398078  1.0000
  H   H12       1.0  0.006950448747412186  0.4328880584024934  0.4994185464412489  1.0000
  H   H13       1.0  0.26844447796232834  0.02614054295840698  0.12167398014076412  1.0000
  H   H14       1.0  0.731555521657686  0.5261405430339756  0.3783260197555246  1.0000
  H   H15       1.0  0.7315555209812749  0.9738594567988229  0.8783260200104832  1.0000
  H   H16       1.0  0.2684444769265468  0.47385945711716165  0.6216739797620515  1.0000
  H   H17       1.0  0.31264726847392943  0.09595811479475072  0.12305339823000272  1.0000
  H   H18       1.0  0.687352731146085  0.5959581148703194  0.37694660166628596  1.0000
  H   H19       1.0  0.6873527326355725  0.9040418853563866  0.876946601917712  1.0000
  H   H20       1.0  0.31264726743814786  0.40404188528081797  0.62305339785129  1.0000
  H   H21       1.0  0.9294513640012427  0.10496389868653269  0.2161576647927992  1.0000
  H   H22       1.0  0.07054863561877166  0.6049638987621013  0.2838423351034895  1.0000
  H   H23       1.0  0.07054863458299006  0.8950361010706972  0.7838423347247768  1.0000
  H   H24       1.0  0.9294513654907303  0.39503610099512854  0.7161576650442252  1.0000
  H   H25       1.0  0.8796959742572303  0.03553580475867151  0.21480176540411933  1.0000
  H   H26       1.0  0.1203040253627841  0.5355358048342401  0.2851982344921694  1.0000
  H   H27       1.0  0.12030402649290134  0.9644641949985584  0.7851982341099242  1.0000
  H   H28       1.0  0.8796959735808192  0.46446419531689714  0.714801765659078  1.0000
  H   H29       1.0  0.45330861146865237  0.09320668698795101  0.28328993341496117  1.0000
  H   H30       1.0  0.5466913885107324  0.5932066870635196  0.21671006711499882  1.0000
  H   H31       1.0  0.5466913874749508  0.9067933127692789  0.7167100667362861  1.0000
  H   H32       1.0  0.4533086104328708  0.4067933126937103  0.7832899330362485  1.0000
  H   H33       1.0  0.4042175553457465  0.02432526168494753  0.28486443709319875  1.0000
  H   H34       1.0  0.5957824442742677  0.5243252617605162  0.21513556280308996  1.0000
  H   H35       1.0  0.5957824457637554  0.9756747384661898  0.7151355630545161  1.0000
  H   H36       1.0  0.40421755466933534  0.47567473839062113  0.7848644373481574  1.0000
  H   H37       1.0  0.02722089963320803  0.03497068945040463  0.3806711732110077  1.0000
  H   H38       1.0  0.9727791021527051  0.5349706895259733  0.1193288266817484  1.0000
  H   H39       1.0  0.972779101476294  0.9650293107007327  0.6193288269367071  1.0000
  H   H40       1.0  0.027220898597426508  0.465029310625164  0.880671172832295  1.0000
  H   H41       1.0  0.5865073289416188  0.09940454493495807  0.43792793215446385  1.0000
  H   H42       1.0  0.41349267284429425  0.5994045446166193  0.0620720677382922  1.0000
  H   H43       1.0  0.41349267180851274  0.9005954552161792  0.5620720673595796  1.0000
  H   H44       1.0  0.5865073282652077  0.40059545514061057  0.9379279324094226  1.0000
  H   H45       1.0  0.5559151379799396  0.030890232660148398  0.45025834481965843  1.0000
  H   H46       1.0  0.4440848616400747  0.5308902323418097  0.04974165507663027  1.0000
  H   H47       1.0  0.4440848606042931  0.9691097674909889  0.5497416546979176  1.0000
  H   H48       1.0  0.5559151394694273  0.4691097674154202  0.9502583450710845  1.0000
  H   H49       1.0  0.18994210716097704  0.11302062533612496  0.5283195576940108  1.0000
  H   H50       1.0  0.8100578929127434  0.6130206254116936  0.9716804420749913  1.0000
  H   H51       1.0  0.810057891782626  0.886979374421105  0.4716804424572365  1.0000
  H   H52       1.0  0.1899421081967586  0.38697937434553625  0.028319558072723492  1.0000
  H   H53       1.0  0.18671606315636824  0.04485822953603391  0.5477091887106798  1.0000
  H   H54       1.0  0.8132839369173521  0.5448582296116026  0.9522908110583224  1.0000
  H   H55       1.0  0.813283935787235  0.9551417706151033  0.4522908114405676  1.0000
  H   H56       1.0  0.1867160641921498  0.45514177053953475  0.04770918908939241  1.0000
  H   H57       1.0  0.7158386708475185  0.049055085568244616  0.6156288603123853  1.0000
  H   H58       1.0  0.28416132958557216  0.5490550856438132  0.8843711400902882  1.0000
  H   H59       1.0  0.2841613302619835  0.9509449141889853  0.3843711398353296  1.0000
  H   H60       1.0  0.7158386715239297  0.450944914507324  0.1156288600574265  1.0000
  H   H61       1.0  0.7283653221232059  0.11614852344133811  0.5883035833843018  1.0000
  H   H62       1.0  0.2716346757846157  0.6161485235169067  0.911696416388233  1.0000
  H   H63       1.0  0.27163467646102685  0.8838514763158918  0.4116964161332742  1.0000
  H   H64       1.0  0.7283653231589875  0.3838514762403232  0.08830358376301448  1.0000
  H   H65       1.0  0.334797549468146  0.13572492696305963  0.6771173621794007  1.0000
  H   H66       1.0  0.6652024506055745  0.6357249270386282  0.8228826375896016  1.0000
  H   H67       1.0  0.665202449116087  0.8642750731880776  0.32288263733817546  1.0000
  H   H68       1.0  0.33479755050392757  0.364275073112509  0.17711736255811325  1.0000
  H   H69       1.0  0.3475711534525454  0.06910820724532812  0.7110999275589994  1.0000
  H   H70       1.0  0.6524288469805453  0.5691082073208968  0.788900072843674  1.0000
  H   H71       1.0  0.6524288454910576  0.9308917929058093  0.2889000725922478  1.0000
  H   H72       1.0  0.3475711541289567  0.4308917928302405  0.21109992730404084  1.0000
  H   H73       1.0  0.8728257765728882  0.0806406447475885  0.7778830025906119  1.0000
  H   H74       1.0  0.12717422350083227  0.5806406448231571  0.7221169971783902  1.0000
  H   H75       1.0  0.12717422237071505  0.9193593550096414  0.22211699756063544  1.0000
  H   H76       1.0  0.8728257776086698  0.41935935532798013  0.2778830029693246  1.0000
  H   H77       1.0  0.8698700550499273  0.1459244027104102  0.7367821917490845  1.0000
  H   H78       1.0  0.13012994502379308  0.6459244027859788  0.7632178080199175  1.0000
  H   H79       1.0  0.13012994389367585  0.8540755974407271  0.2632178084021628  1.0000
  H   H80       1.0  0.8698700557263385  0.3540755973651584  0.23678219149412588  1.0000
  H   H81       1.0  0.500144080289857  0.10628815351233559  0.8601397952907064  1.0000
  H   H82       1.0  0.4998559197838634  0.6062881535879042  0.6398602044782956  1.0000
  H   H83       1.0  0.49985592081964497  0.8937118462448943  0.13986020485700834  1.0000
  H   H84       1.0  0.5001440809662682  0.39371184656323305  0.3601397950357478  1.0000
  H   H85       1.0  0.49232845304412354  0.16851192024786338  0.820791015014839  1.0000
  H   H86       1.0  0.5076715473889671  0.668511920323432  0.6792089853878345  1.0000
  H   H87       1.0  0.5076715458994796  0.831488079903274  0.1792089851364084  1.0000
  H   H88       1.0  0.4923284537205348  0.33148807982770523  0.3207910147598803  1.0000
  H   H89       1.0  0.7912909305476535  0.14646934129397957  0.8822860194677731  1.0000
  H   H90       1.0  0.2087090673601681  0.6464693413695483  0.6177139803047618  1.0000
  H   H91       1.0  0.20870906803657924  0.8535306588571577  0.11771398004980302  1.0000
  H   H92       1.0  0.7912909315834351  0.35353065878158907  0.3822860198464857  1.0000
  H   H93       1.0  0.052925053421695206  0.10386315400821361  0.37344799806717577  1.0000
  H   H94       1.0  0.9470749461983191  0.6038631540837822  0.12655200182911294  1.0000
  H   H95       1.0  0.9470749476878066  0.8961368461429238  0.626552002080539  1.0000
  H   H96       1.0  0.05292505274528397  0.396136846067355  0.8734479983221345  1.0000
  H   H97       1.0  0.4782704602601703  0.2624013228096897  0.02391354626474881  1.0000
  H   H98       1.0  0.5217295393598441  0.7624013228852583  0.4760864536315399  1.0000
  H   H99       1.0  0.5217295386834329  0.7375986773414476  0.9760864538864985  1.0000
  H   H100      1.0  0.4782704613902875  0.23759867726587897  0.5239135458825035  1.0000
  H   H101      1.0  0.7917294220991749  0.27135901179000016  0.10209955702258541  1.0000
  H   H102      1.0  0.20827057788020978  0.7713590118655688  0.3979004435073746  1.0000
  H   H103      1.0  0.20827057901032706  0.7286409883611372  0.8979004431251294  1.0000
  H   H104      1.0  0.7917294210633934  0.22864098828556847  0.6020995566438728  1.0000
  H   H105      1.0  0.302218430135148  0.30017157515692006  0.8512484850357014  1.0000
  H   H106      1.0  0.6977815702979427  0.8001715752324886  0.6487515153669721  1.0000
  H   H107      1.0  0.6977815688084552  0.6998284249942172  0.14875151511554602  1.0000
  H   H108      1.0  0.30221843081155925  0.1998284249186486  0.3512484847807427  1.0000
  H   H109      1.0  0.9868328607214212  0.2796793219683119  0.7797029753123185  1.0000
  H   H110      1.0  0.013167139711669388  0.7796793220438806  0.7202970250903549  1.0000
  H   H111      1.0  0.013167140388080626  0.7203206781828254  0.22029702483539626  1.0000
  H   H112      1.0  0.9868328592319338  0.22032067810725675  0.2797029750608924  1.0000
  H   H113      1.0  0.5138848731575407  0.31427471457043926  0.6481906688707919  1.0000
  H   H114      1.0  0.4861151269161797  0.814274714646008  0.8518093308982102  1.0000
  H   H115      1.0  0.48611512759259085  0.6857252851867907  0.3518093306432515  1.0000
  H   H116      1.0  0.5138848720274235  0.185725285111222  0.1481906692530372  1.0000
  H   H117      1.0  0.1151111419284036  0.21750112637956195  0.8947661377511186  1.0000
  H   H118      1.0  0.8848888585046871  0.7175011260612232  0.6052338626515549  1.0000
  H   H119      1.0  0.8848888570151995  0.7824988737715753  0.10523386240012882  1.0000
  H   H120      1.0  0.11511114260481484  0.2824988736960067  0.3947661374961599  1.0000
  C   C1        1.0  0.1581476095888176  0.06385756975031778  0.12876262473339048  1.0000
  C   C2        1.0  0.8418523903905671  0.5638575698258864  0.37123737579656957  1.0000
  C   C3        1.0  0.8418523893547856  0.9361424300069121  0.8712373754178568  1.0000
  C   C4        1.0  0.15814761071893493  0.43614243032525085  0.6287626243511453  1.0000
  C   C5        1.0  0.04271570947455897  0.0670025539827903  0.21246887080236657  1.0000
  C   C6        1.0  0.9572842923113541  0.5670025536644515  0.28753112909038947  1.0000
  C   C7        1.0  0.957284291634943  0.932997446168347  0.7875311293453482  1.0000
  C   C8        1.0  0.04271570879814776  0.43299744609277835  0.7124688710573253  1.0000
  C   C9        1.0  0.28937010386600104  0.06223390709365298  0.2879473963319119  1.0000
  C   C10       1.0  0.7106298957540133  0.5622339071692216  0.21205260356437675  1.0000
  C   C11       1.0  0.7106298972435009  0.9377660930574844  0.7120526038158028  1.0000
  C   C12       1.0  0.28937010283021947  0.4377660929819157  0.7879473959531992  1.0000
  C   C13       1.0  0.18145766024128435  0.06720708803532315  0.3731276627501046  1.0000
  C   C14       1.0  0.81854233937873  0.5672070881108918  0.12687233714618404  1.0000
  C   C15       1.0  0.8185423405088473  0.9327929117219068  0.6268723367639388  1.0000
  C   C16       1.0  0.18145765956487314  0.43279291204024545  0.8731276630050634  1.0000
  C   C17       1.0  0.4311272222094897  0.06801488732753819  0.4482320324476942  1.0000
  C   C18       1.0  0.5688727774105247  0.5680148874031069  0.05176796744859453  1.0000
  C   C19       1.0  0.5688727789000123  0.9319851128235991  0.5517679677000206  1.0000
  C   C20       1.0  0.4311272215330785  0.4319851127480304  0.9482320327026529  1.0000
  C   C21       1.0  0.3288457163666141  0.07752622024489535  0.5332812675321476  1.0000
  C   C22       1.0  0.6711542837071063  0.577526220320464  0.9667187322368544  1.0000
  C   C23       1.0  0.671154282576989  0.922473779906242  0.46671873261909963  1.0000
  C   C24       1.0  0.3288457170430254  0.42247377983067325  0.033281267277189  1.0000
  C   C25       1.0  0.5821829506691133  0.08519767709872894  0.6062513789319735  1.0000
  C   C26       1.0  0.4178170497639774  0.5851976767803901  0.8937486214707  1.0000
  C   C27       1.0  0.41781705044038864  0.9148023230524084  0.3937486212157413  1.0000
  C   C28       1.0  0.5821829513455246  0.41480232297683967  0.10625137867701479  1.0000
  C   C29       1.0  0.4788301577718334  0.10100247125792178  0.6888607161717868  1.0000
  C   C30       1.0  0.5211698423018869  0.6010024713334904  0.8111392835972152  1.0000
  C   C31       1.0  0.5211698433376685  0.8989975284993081  0.31113928397592794  1.0000
  C   C32       1.0  0.47883015664171613  0.3989975284237395  0.18886071655403205  1.0000
  C   C33       1.0  0.7332449803666341  0.11483290070223665  0.7579061324425563  1.0000
  C   C34       1.0  0.2667550200664565  0.6148329007778053  0.742093867960117  1.0000
  C   C35       1.0  0.2667550207428678  0.8851670990549932  0.2420938677051584  1.0000
  C   C36       1.0  0.7332449788771466  0.3851670989794246  0.25790613219113023  1.0000
  C   C37       1.0  0.7971096397248741  0.2005194046697164  0.027538026999805804  1.0000
  C   C38       1.0  0.20289035989514032  0.7005194043513776  0.47246197289648284  1.0000
  C   C39       1.0  0.2028903613846279  0.7994805954814209  0.9724619731479089  1.0000
  C   C40       1.0  0.7971096390484628  0.29948059540585226  0.5275380272547644  1.0000
  C   C41       1.0  0.7176895719533283  0.25816734967125904  0.03700310828755751  1.0000
  C   C42       1.0  0.28231042983258486  0.7581673497468276  0.4629968916051985  1.0000
  C   C43       1.0  0.28231042915617366  0.7418326500859709  0.9629968918601572  1.0000
  C   C44       1.0  0.7176895709175467  0.24183265040430957  0.537003107908845  1.0000
  C   C45       1.0  0.39396282543665834  0.2676328550081228  0.7360741222368447  1.0000
  C   C46       1.0  0.6060371746370621  0.767632854689784  0.7639258775321575  1.0000
  C   C47       1.0  0.6060371735069449  0.7323671451430145  0.26392587791440275  1.0000
  C   C48       1.0  0.3939628264724399  0.23236714506744585  0.23607412261555727  1.0000
  C   C49       1.0  0.21277411807102556  0.2685534536225896  0.8071351441641633  1.0000
  C   C50       1.0  0.7872258820026948  0.7685534536981583  0.6928648556048388  1.0000
  C   C51       1.0  0.7872258830384764  0.7314465465285477  0.19286485598355146  1.0000
  C   C52       1.0  0.21277411658153797  0.23144654645297905  0.3071351439127372  1.0000
  N   N1        1.0  0.9164471658431346  0.06892378689230924  0.05544943336422309  1.0000
  N   N2        1.0  0.08355283377687991  0.5689237869678779  0.4445505665320656  1.0000
  N   N3        1.0  0.08355283310046871  0.9310762128649206  0.9445505667870243  1.0000
  N   N4        1.0  0.9164471673326221  0.43107621278935204  0.5554494336156491  1.0000
  N   N5        1.0  0.6240049822111264  0.13519860089791363  0.8343374374122281  1.0000
  N   N6        1.0  0.37599501786259404  0.6351986009734822  0.665662562356774  1.0000
  N   N7        1.0  0.3759950188983756  0.8648013988593162  0.16566256273548663  1.0000
  N   N8        1.0  0.6240049810810092  0.36480139917765503  0.3343374377944734  1.0000
  O   O1        1.0  0.6883646599025787  0.1694129369378024  0.07748864288194104  1.0000
  O   O2        1.0  0.3116353397174358  0.669412937013371  0.4225113570143476  1.0000
  O   O3        1.0  0.3116353386816543  0.8305870628194275  0.922511356635635  1.0000
  O   O4        1.0  0.6883646613920662  0.33058706274385885  0.5774886431333671  1.0000
  O   O5        1.0  0.9547647133696915  0.1859844151229091  0.9743248801439583  1.0000
  O   O6        1.0  0.04523528706339926  0.6859844151984777  0.525675120258715  1.0000
  O   O7        1.0  0.045235287739810524  0.8140155846343208  0.025675120003756394  1.0000
  O   O8        1.0  0.9547647118802038  0.3140155845587521  0.4743248798925323  1.0000
  O   O9        1.0  0.5306787423162826  0.2285431578383163  0.7185188079241165  1.0000
  O   O10       1.0  0.4693212581168081  0.728543157913885  0.781481192478557  1.0000
  O   O11       1.0  0.4693212566273205  0.7714568419189135  0.2814811922271308  1.0000
  O   O12       1.0  0.5306787429926939  0.27145684223725236  0.21851880766915782  1.0000
  O   O13       1.0  0.38830084310395235  0.3137120859995707  0.6966418919675447  1.0000
  O   O14       1.0  0.6116991569697682  0.8137120860751393  0.8033581078014574  1.0000
  O   O15       1.0  0.6116991580055496  0.6862879141515665  0.30335810818017006  1.0000
  O   O16       1.0  0.38830084413973387  0.18628791407599798  0.1966418923462573  1.0000
  O   O17       1.0  0.22620745274204257  0.21857913472291676  0.8462055430616494  1.0000
  O   O18       1.0  0.7737925473316778  0.7185791347984853  0.6537944567073527  1.0000
  O   O19       1.0  0.7737925483674595  0.7814208654282206  0.1537944570860654  1.0000
  O   O20       1.0  0.22620745341845375  0.28142086535265187  0.3462055428066907  1.0000
  Cl  Cl1       1.0  0.28763405347414783  0.04759934721062027  0.9114208531471762  1.0000
  Cl  Cl2       1.0  0.712365946958943  0.5475993472861889  0.5885791472554972  1.0000
  Cl  Cl3       1.0  0.7123659476353542  0.9524006525466097  0.08857914700053858  1.0000
  Cl  Cl4       1.0  0.2876340519846602  0.45240065247104094  0.41142085289575014  1.0000
  Cl  Cl5       1.0  0.8687870103052566  0.3014501253013374  0.967142371952123  1.0000
  Cl  Cl6       1.0  0.13121299012783416  0.8014501253769061  0.5328576284505504  1.0000
  Cl  Cl7       1.0  0.13121298863834657  0.6985498748497998  0.032857628199124286  1.0000
  Cl  Cl8       1.0  0.8687870109816678  0.19854987477423122  0.46714237169716444  1.0000
