data_image0
_chemical_formula_structural       H40C20N4I8
_chemical_formula_sum              "H40 C20 N4 I8"
_cell_length_a       8.058123659192855
_cell_length_b       8.559373186269786
_cell_length_c       12.86841090610601
_cell_angle_alpha    95.34409579240271
_cell_angle_beta     98.55314207867242
_cell_angle_gamma    97.31835174680124

_space_group_name_H-M_alt    "P 1"
_space_group_IT_number       1

loop_
  _space_group_symop_operation_xyz
  'x, y, z'

loop_
  _atom_site_type_symbol
  _atom_site_label
  _atom_site_symmetry_multiplicity
  _atom_site_fract_x
  _atom_site_fract_y
  _atom_site_fract_z
  _atom_site_occupancy
  H   H1        1.0  0.5003540420902917  0.7535537255948946  0.375593977464927  1.0000
  H   H2        1.0  0.49964595738523304  0.24644627437973798  0.624406022694947  1.0000
  H   H3        1.0  0.004573739820371043  0.7440221555084465  0.42169401412646274  1.0000
  H   H4        1.0  0.9954262608973875  0.2559778444782002  0.5783059860321204  1.0000
  H   H5        1.0  0.4416150171630615  0.8471841621152453  0.20397431518081724  1.0000
  H   H6        1.0  0.5583849823124631  0.1528158378593874  0.7960256849790569  1.0000
  H   H7        1.0  0.3874048911848658  0.9772555788227911  0.30674875305977195  1.0000
  H   H8        1.0  0.6125951080821032  0.0227444210137415  0.6932512463090867  1.0000
  H   H9        1.0  0.20881835087965447  0.6521741561226467  0.08528051787986211  1.0000
  H   H10       1.0  0.7911816498381042  0.34782584386399995  0.914719482278721  1.0000
  H   H11       1.0  0.9939088282850271  0.647075027797631  0.10331489724759563  1.0000
  H   H12       1.0  0.006091172432731583  0.35292497218901564  0.8966851029109874  1.0000
  H   H13       1.0  0.4225665351451222  0.5628343596137723  0.22002323989187503  1.0000
  H   H14       1.0  0.5774334643304025  0.4371656403608604  0.779976760267999  1.0000
  H   H15       1.0  0.3609481462084032  0.48881010914368755  0.3369291059008254  1.0000
  H   H16       1.0  0.6390518532671214  0.5111898908309451  0.6630708942590485  1.0000
  H   H17       1.0  0.29593707973491507  0.875640438635427  0.45932560341060125  1.0000
  H   H18       1.0  0.7040629209828436  0.12435956135121982  0.5406743967479819  1.0000
  H   H19       1.0  0.28430117174112496  0.6670225867005278  0.47280793614672445  1.0000
  H   H20       1.0  0.715698828768078  0.3329774131480189  0.5271920632208433  1.0000
  H   H21       1.0  0.9196384100832921  0.8315673091995759  0.2553638698197324  1.0000
  H   H22       1.0  0.08036159042591082  0.16843269064897076  0.7446361295478354  1.0000
  H   H23       1.0  0.08441372370486727  0.9696157262290978  0.3354768730515354  1.0000
  H   H24       1.0  0.9155862768043358  0.030384273619449086  0.6645231263160324  1.0000
  H   H25       1.0  0.902429874907083  0.5522537957935006  0.2731741448904307  1.0000
  H   H26       1.0  0.09757012595669613  0.4477462053706872  0.7268258552664133  1.0000
  H   H27       1.0  0.053638179968911084  0.4814369047632233  0.3669345384780904  1.0000
  H   H28       1.0  0.9463618207488478  0.5185630952234235  0.6330654616804927  1.0000
  H   H29       1.0  0.1837283340239555  0.35428682961759833  0.10682369239082633  1.0000
  H   H30       1.0  0.8162716664852474  0.6457131702309484  0.8931763069767416  1.0000
  H   H31       1.0  0.9710849891451107  0.35143591954254144  0.1306416895637406  1.0000
  H   H32       1.0  0.028915011572648086  0.6485640804441053  0.8693583105948425  1.0000
  H   H33       1.0  0.1235854661318453  0.2883441433038633  0.22558140399188845  1.0000
  H   H34       1.0  0.8764145345859133  0.7116558566827832  0.7744185961666946  1.0000
  H   H35       1.0  0.20863905166306854  0.9386887723013241  0.060212002445201675  1.0000
  H   H36       1.0  0.7913609476039004  0.06131122753520867  0.9397879969236572  1.0000
  H   H37       1.0  0.18826886328414236  0.0787665856577916  0.16605691259158495  1.0000
  H   H38       1.0  0.8117311359828264  0.9212334141787409  0.8339430867772739  1.0000
  H   H39       1.0  0.005004025911414344  0.952382956086441  0.09627910070574897  1.0000
  H   H40       1.0  0.9949959735641104  0.0476170438881917  0.903720899454125  1.0000
  C   C1        1.0  0.3518038675611266  0.8607697015343918  0.2594119958536865  1.0000
  C   C2        1.0  0.6481961329480764  0.13923029831415473  0.7405880035138813  1.0000
  C   C3        1.0  0.12556582736496671  0.6661233050539717  0.14500300353066767  1.0000
  C   C4        1.0  0.8744341721105581  0.333876694920661  0.8549969966292065  1.0000
  C   C5        1.0  0.14978848350237806  0.5424503001862155  0.2230021300385122  1.0000
  C   C6        1.0  0.8502115172153807  0.4575496998004312  0.776997870120071  1.0000
  C   C7        1.0  0.3351644458542739  0.5708346664486802  0.27754117293594216  1.0000
  C   C8        1.0  0.664835554654929  0.42916533339986657  0.7224588264316258  1.0000
  C   C9        1.0  0.26472449314625224  0.7553616515916791  0.4174385870483941  1.0000
  C   C10       1.0  0.7352755075715064  0.24463834839496754  0.5825614131101889  1.0000
  C   C11       1.0  0.05516102572882812  0.8525517616380821  0.28860485286565957  1.0000
  C   C12       1.0  0.9448389749889307  0.14744823834856458  0.7113951472929235  1.0000
  C   C13       1.0  0.1674939395273646  0.8351310756391298  0.20339714005060272  1.0000
  C   C14       1.0  0.8325060611903942  0.1648689243475169  0.7966028601079804  1.0000
  C   C15       1.0  0.037244184706963515  0.565127120238059  0.307618982287069  1.0000
  C   C16       1.0  0.9627558145600054  0.4348728795984735  0.6923810170817898  1.0000
  C   C17       1.0  0.10485403205109903  0.37390017602726255  0.16806850576869933  1.0000
  C   C18       1.0  0.8951459674244258  0.6260998239473701  0.8319314943911748  1.0000
  C   C19       1.0  0.14063062062021991  0.9588573900644003  0.12702008492013922  1.0000
  C   C20       1.0  0.8593693788553048  0.041142609910232275  0.872979915239735  1.0000
  N   N1        1.0  0.37353100014505136  0.7368450232582588  0.33464733025081395  1.0000
  N   N2        1.0  0.6264689993304734  0.2631549767163738  0.6653526699090602  1.0000
  N   N3        1.0  0.08515068259000218  0.730726597035173  0.3643117300717564  1.0000
  N   N4        1.0  0.9148493168855226  0.2692734029394598  0.6356882700881178  1.0000
  I   I1        1.0  0.7497861961507518  0.7509928052958003  0.5023574142491465  1.0000
  I   I2        1.0  0.2502138033247728  0.24900719467883242  0.4976425859107276  1.0000
  I   I3        1.0  0.4345424603290778  0.776033693238868  0.8832684702647999  1.0000
  I   I4        1.0  0.565457539146447  0.22396630673576473  0.11673152989507428  1.0000
  I   I5        1.0  0.6460404448901348  0.7138605540416151  0.07609905799859515  1.0000
  I   I6        1.0  0.3539595545853899  0.2861394459330176  0.9239009421612789  1.0000
  I   I7        1.0  0.2354063040577196  0.8387063242123186  0.6870515863308478  1.0000
  I   I8        1.0  0.7645936954178051  0.16129367576231401  0.3129484138290263  1.0000
