data_image0
_chemical_formula_structural       H28C30N12O6F4
_chemical_formula_sum              "H28 C30 N12 O6 F4"
_cell_length_a       8.372223115653437
_cell_length_b       9.931206754860913
_cell_length_c       10.550067876887729
_cell_angle_alpha    75.56004676129395
_cell_angle_beta     86.31559696842403
_cell_angle_gamma    76.35157969461939

_space_group_name_H-M_alt    "P 1"
_space_group_IT_number       1

loop_
  _space_group_symop_operation_xyz
  'x, y, z'

loop_
  _atom_site_type_symbol
  _atom_site_label
  _atom_site_symmetry_multiplicity
  _atom_site_fract_x
  _atom_site_fract_y
  _atom_site_fract_z
  _atom_site_occupancy
  H   H1        1.0  0.7186462803464925  0.45532099008975563  0.9896942924491294  1.0000
  H   H2        1.0  0.2813537197555847  0.5446790096634555  0.010305707049595183  1.0000
  H   H3        1.0  0.9168142685230994  0.14875055956434055  0.017791384555061813  1.0000
  H   H4        1.0  0.08318573157897778  0.8512494401888707  0.9822086149436627  1.0000
  H   H5        1.0  0.9511699031074017  0.1544269314197626  0.84930553762194  1.0000
  H   H6        1.0  0.04883009699445879  0.8455730683379886  0.15069446282358226  1.0000
  H   H7        1.0  0.49661927494059377  0.25144722551324317  0.8707964641806335  1.0000
  H   H8        1.0  0.5033807248785926  0.7485527753122897  0.12920353602462722  1.0000
  H   H9        1.0  0.6712728558605093  0.12432370211058899  0.8326759091121185  1.0000
  H   H10       1.0  0.3287271442415677  0.8756762976426223  0.16732409038660584  1.0000
  H   H11       1.0  0.7581793692009403  0.846625947846154  0.26702798736017985  1.0000
  H   H12       1.0  0.24182063090092026  0.15337405191159711  0.7329720130853424  1.0000
  H   H13       1.0  0.3986647994310224  0.2169714768435091  0.11226394161269908  1.0000
  H   H14       1.0  0.6013352006708379  0.7830285229142422  0.8877360588328232  1.0000
  H   H15       1.0  0.23789631695730412  0.5261873540513043  0.7756202062620834  1.0000
  H   H16       1.0  0.7621036831447731  0.47381264570190695  0.2243797932366412  1.0000
  H   H17       1.0  0.08578502535592125  0.2680914923547057  0.1194648242749852  1.0000
  H   H18       1.0  0.9142149747459392  0.7319085074030455  0.8805351761705371  1.0000
  H   H19       1.0  0.802430693935284  0.4493831694102903  0.43603477933572393  1.0000
  H   H20       1.0  0.19756930616657636  0.5506168303474609  0.5639652211097983  1.0000
  H   H21       1.0  0.4772446708315704  0.749167846183498  0.623323936986381  1.0000
  H   H22       1.0  0.5227553292702899  0.25083215357425326  0.3766760634591413  1.0000
  H   H23       1.0  0.5342154071304859  0.5704431947033176  0.8394305988948791  1.0000
  H   H24       1.0  0.46578459297137453  0.4295568050544336  0.1605694015506432  1.0000
  H   H25       1.0  0.8661181768425547  0.055578136062261405  0.3934830405046031  1.0000
  H   H26       1.0  0.1338818232593058  0.9444218636954896  0.606516959940919  1.0000
  H   H27       1.0  0.5691691356746185  0.9977371279674736  0.6414033233555781  1.0000
  H   H28       1.0  0.4308308644272418  0.0022628717902777383  0.358596677089944  1.0000
  C   C1        1.0  0.7280561590937891  0.30302547592623835  0.8945532817026103  1.0000
  C   C2        1.0  0.2719438407253974  0.6969745248992945  0.10544671850265046  1.0000
  C   C3        1.0  0.9091393900222441  0.21991674990842594  0.9195891369237704  1.0000
  C   C4        1.0  0.09086061007961631  0.7800832498493253  0.08041086352175178  1.0000
  C   C5        1.0  0.6222449829249428  0.19298914474352813  0.8994814571940358  1.0000
  C   C6        1.0  0.3777550168944603  0.8070108560774648  0.10051854206442706  1.0000
  C   C7        1.0  0.6898469215231224  0.941832044817736  0.200808144340107  1.0000
  C   C8        1.0  0.31015307857873786  0.05816795494001536  0.7991918561054151  1.0000
  C   C9        1.0  0.5051019671087409  0.12839062981321958  0.12578127737657158  1.0000
  C   C10       1.0  0.49489803299333635  0.8716093699399916  0.8742187221221531  1.0000
  C   C11       1.0  0.1750895150518083  0.4527137660095609  0.8420215561705489  1.0000
  C   C12       1.0  0.8249104850502688  0.5472862337436504  0.15797844332817582  1.0000
  C   C13       1.0  0.09969338351412907  0.32583663677370295  0.018681771318344545  1.0000
  C   C14       1.0  0.9003066165879481  0.6741633629795083  0.9813182281803802  1.0000
  C   C15       1.0  0.699081626696151  0.4097755655597249  0.7610966730736501  1.0000
  C   C16       1.0  0.3009183734057095  0.5902244341980263  0.23890332737187214  1.0000
  C   C17       1.0  0.7683695053380707  0.3801019543616402  0.6442808468634789  1.0000
  C   C18       1.0  0.2316304947637898  0.6198980453961109  0.3557191535820434  1.0000
  C   C19       1.0  0.7414221724987898  0.47647108489814455  0.5232980300997111  1.0000
  C   C20       1.0  0.25857782760328735  0.5235289148550668  0.47670196939901344  1.0000
  C   C21       1.0  0.6349272172428218  0.6075113705612832  0.5196557116991348  1.0000
  C   C22       1.0  0.36507278285903877  0.3924886291964678  0.4803442887463874  1.0000
  C   C23       1.0  0.5593406145712005  0.6445512523843834  0.6310140609205931  1.0000
  C   C24       1.0  0.4406593855306599  0.35544874737336773  0.3689859395249292  1.0000
  C   C25       1.0  0.5929337927947337  0.5443867753345523  0.7506329701880866  1.0000
  C   C26       1.0  0.4070662073071266  0.45561322442319907  0.24936703025743565  1.0000
  C   C27       1.0  0.8050823713074625  0.9760982307807478  0.6014811557046575  1.0000
  C   C28       1.0  0.19491762879439786  0.02390176897700349  0.3985188447408648  1.0000
  C   C29       1.0  0.9192174472574918  0.010557869702924435  0.4909942947206695  1.0000
  C   C30       1.0  0.08078255284436871  0.9894421300548266  0.5090057057248527  1.0000
  N   N1        1.0  0.6140536526955642  0.10332962084685257  0.030154198230698828  1.0000
  N   N2        1.0  0.38594634712362214  0.8966703799786805  0.9698458019745619  1.0000
  N   N3        1.0  0.7338907560224459  0.9841509020025968  0.07654087272870426  1.0000
  N   N4        1.0  0.2661092440796311  0.015849097750614546  0.9234591267700202  1.0000
  N   N5        1.0  0.5491016322059156  0.027328306078839657  0.23521533076970147  1.0000
  N   N6        1.0  0.45089836789594473  0.9726716936789115  0.7647846696758207  1.0000
  N   N7        1.0  0.022391874059742082  0.31063267597505634  0.916650704018949  1.0000
  N   N8        1.0  0.9776081257594443  0.6893673248504766  0.08334929618631172  1.0000
  N   N9        1.0  0.06965066900154854  0.3910642575840311  0.8021791894008344  1.0000
  N   N10       1.0  0.9303493311003117  0.6089357421737202  0.19782081104468788  1.0000
  N   N11       1.0  0.198208493790912  0.41575839239136153  0.9744233624987639  1.0000
  N   N12       1.0  0.8017915060282745  0.5842416084341713  0.025576637706496676  1.0000
  O   O1        1.0  0.6703506417453594  0.36989010639864  0.9974650990421331  1.0000
  O   O2        1.0  0.32964935835650094  0.6301098933591112  0.002534901403389208  1.0000
  O   O3        1.0  0.8499638932829706  0.9167655482310421  0.7153926043275443  1.0000
  O   O4        1.0  0.15003610681910645  0.08323445152216924  0.2846073951711802  1.0000
  O   O5        1.0  0.6494497325462427  0.018048924985724118  0.5623893368551611  1.0000
  O   O6        1.0  0.35055026755561763  0.9819510747720269  0.43761066359036116  1.0000
  F   F1        1.0  0.8681708713887013  0.2493156703572597  0.6449815705535922  1.0000
  F   F2        1.0  0.13182912871315913  0.7506843294004913  0.3550184298919301  1.0000
  F   F3        1.0  0.6023010907123485  0.7019526668850234  0.4008067555711978  1.0000
  F   F4        1.0  0.3976989093897287  0.29804733286818785  0.5991932439275268  1.0000
