data_image0
_chemical_formula_structural       H96C60N8O20
_chemical_formula_sum              "H96 C60 N8 O20"
_cell_length_a       8.475394876415224
_cell_length_b       8.974791502317748
_cell_length_c       22.04979730361047
_cell_angle_alpha    90.0
_cell_angle_beta     90.0
_cell_angle_gamma    90.0

_space_group_name_H-M_alt    "P 1"
_space_group_IT_number       1

loop_
  _space_group_symop_operation_xyz
  'x, y, z'

loop_
  _atom_site_type_symbol
  _atom_site_label
  _atom_site_symmetry_multiplicity
  _atom_site_fract_x
  _atom_site_fract_y
  _atom_site_fract_z
  _atom_site_occupancy
  H   H1        1.0  0.10573188660432363  0.6131207703910381  0.7769686956348925  1.0000
  H   H2        1.0  0.3942681136071577  0.38687922935071095  0.27696869571676347  1.0000
  H   H3        1.0  0.894268112638753  0.11312077052016357  0.7230313041194948  1.0000
  H   H4        1.0  0.6057318868158049  0.8868792292215855  0.22303130420136566  1.0000
  H   H5        1.0  0.9690739168808985  0.3620285172263789  0.8548475784361789  1.0000
  H   H6        1.0  0.5309260837535456  0.6379714836296022  0.3548475785180498  1.0000
  H   H7        1.0  0.030926083542064185  0.8620285170972535  0.6451524217717273  1.0000
  H   H8        1.0  0.46907391666941717  0.1379714826444956  0.1451524214000793  1.0000
  H   H9        1.0  0.16970925968329273  0.634853757720006  0.8898561669220968  1.0000
  H   H10       1.0  0.3302907405281886  0.3651462420217431  0.3898561670039676  1.0000
  H   H11       1.0  0.83029074073967  0.13485375784913142  0.6101438328322906  1.0000
  H   H12       1.0  0.6697092587148881  0.8651462418926177  0.11014383291416145  1.0000
  H   H13       1.0  0.23715529120575307  0.4472770837030948  0.8882240743679349  1.0000
  H   H14       1.0  0.26284470900572826  0.5527229160386542  0.38822407444980583  1.0000
  H   H15       1.0  0.7628447092172097  0.9472770835739693  0.6117759253864524  1.0000
  H   H16       1.0  0.7371552914172343  0.05272291616777967  0.1117759254683233  1.0000
  H   H17       1.0  0.08976646175119485  0.5018945018206534  0.9412738686083775  1.0000
  H   H18       1.0  0.41023353728040046  0.4981054979210956  0.44127386869024837  1.0000
  H   H19       1.0  0.9102335374918819  0.0018945019497788912  0.5587261311460099  1.0000
  H   H20       1.0  0.5897664619626761  0.9981054977919701  0.058726131227880764  1.0000
  H   H21       1.0  0.41756995061649504  0.23288663914478985  0.7309975900486284  1.0000
  H   H22       1.0  0.08243004841510031  0.7671133605969592  0.23099759013049925  1.0000
  H   H23       1.0  0.5824300486265817  0.7328866390156644  0.769002409705759  1.0000
  H   H24       1.0  0.9175699508279763  0.26711336072608466  0.26900240978762985  1.0000
  H   H25       1.0  0.4732811554494328  0.16129273193991905  0.6331117559849028  1.0000
  H   H26       1.0  0.026718844762048548  0.83870726780183  0.13311175561325472  1.0000
  H   H27       1.0  0.5267188437936439  0.6612927318107936  0.8668882442230036  1.0000
  H   H28       1.0  0.9732811556609142  0.33870726793095546  0.3668882443048744  1.0000
  H   H29       1.0  0.5668390488057107  0.21665946105799092  0.5288715614673938  1.0000
  H   H30       1.0  0.9331609518287333  0.7833405397979901  0.028871561549264672  1.0000
  H   H31       1.0  0.43316095161725193  0.7166594609288655  0.9711284387405125  1.0000
  H   H32       1.0  0.06683904859422939  0.2833405399271156  0.4711284383688644  1.0000
  H   H33       1.0  0.6669089349133334  0.46902307411965194  0.5027546769413984  1.0000
  H   H34       1.0  0.8330910645412246  0.5309769256220971  0.0027546765697503404  1.0000
  H   H35       1.0  0.3330910643297433  0.9690230751047585  0.9972453232665079  1.0000
  H   H36       1.0  0.16690893470185203  0.030976925751222552  0.4972453233483788  1.0000
  H   H37       1.0  0.6693614471918872  0.6684090263769131  0.5823090227635602  1.0000
  H   H38       1.0  0.8306385534425569  0.3315909733648359  0.08230902284543112  1.0000
  H   H39       1.0  0.33063855323107555  0.16840902650603862  0.917690976990827  1.0000
  H   H40       1.0  0.1693614469804058  0.8315909732357104  0.417690977072698  1.0000
  H   H41       1.0  0.5753351331828974  0.6134437093695372  0.6854240772329138  1.0000
  H   H42       1.0  0.9246648674515465  0.38655629037221195  0.1854240773147847  1.0000
  H   H43       1.0  0.4246648672400652  0.11344370949866257  0.8145759225214735  1.0000
  H   H44       1.0  0.07533513297141614  0.8865562913573185  0.3145759226033444  1.0000
  H   H45       1.0  0.9838434493717487  0.4364794635049015  0.6973596735731535  1.0000
  H   H46       1.0  0.5161565500828093  0.5635205373510795  0.1973596732015055  1.0000
  H   H47       1.0  0.016156551051213983  0.9364794633757761  0.8026403266347527  1.0000
  H   H48       1.0  0.48384344916026734  0.063520536365973  0.3026403267166236  1.0000
  H   H49       1.0  0.8703105221122002  0.5658936888604488  0.7342550798573096  1.0000
  H   H50       1.0  0.6296894773423578  0.43410631088130025  0.2342550799391806  1.0000
  H   H51       1.0  0.1296894783107625  0.0658936889895743  0.7657449198970776  1.0000
  H   H52       1.0  0.37031052190071884  0.9341063107521748  0.26574491997894856  1.0000
  H   H53       1.0  0.8628783327076349  0.3812739827010246  0.7543311460408078  1.0000
  H   H54       1.0  0.637121666746923  0.6187260170407244  0.2543311461226786  1.0000
  H   H55       1.0  0.13712166771532777  0.8812739825718992  0.7456688537135796  1.0000
  H   H56       1.0  0.3628783324961536  0.11872601716984992  0.24566885379545048  1.0000
  H   H57       1.0  0.33671704523660556  0.5574679588609863  0.7436914790738199  1.0000
  H   H58       1.0  0.1632829549748758  0.44253204088076276  0.24369147915569084  1.0000
  H   H59       1.0  0.663282955186357  0.05746795899011178  0.7563085211340863  1.0000
  H   H60       1.0  0.8367170454480868  0.9425320407516372  0.25630852076243826  1.0000
  H   H61       1.0  0.7733756675149014  0.5296397558397238  0.8404058520286597  1.0000
  H   H62       1.0  0.7266243331195426  0.47036024390202524  0.3404058521105305  1.0000
  H   H63       1.0  0.2266243329080612  0.02963975596884925  0.6595941477257278  1.0000
  H   H64       1.0  0.2733756673034201  0.9703602437728998  0.15959414780759865  1.0000
  H   H65       1.0  0.026389184605708816  0.4076570535432666  0.5472812957797147  1.0000
  H   H66       1.0  0.47361081560577245  0.5923429461984825  0.04728129586158564  1.0000
  H   H67       1.0  0.973610815817254  0.907657053414141  0.9527187044281915  1.0000
  H   H68       1.0  0.5263891848171901  0.09234294632760798  0.4527187045100624  1.0000
  H   H69       1.0  0.22896521262980835  0.39711073277630987  0.5703125220085766  1.0000
  H   H70       1.0  0.27103478758167304  0.6028892669654391  0.07031252209044746  1.0000
  H   H71       1.0  0.7710347877931544  0.8971107326471843  0.9296874777458108  1.0000
  H   H72       1.0  0.7289652128412897  0.10288926709456465  0.4296874778276817  1.0000
  H   H73       1.0  0.9905157909941273  0.6359499726011493  0.6084882792914867  1.0000
  H   H74       1.0  0.5094842084604306  0.36405002714059975  0.1084882789198387  1.0000
  H   H75       1.0  0.009484208248949312  0.1359499727302748  0.8915117209164195  1.0000
  H   H76       1.0  0.49051579078264607  0.8640500270114743  0.39151172099829046  1.0000
  H   H77       1.0  0.18884585831556797  0.6269818166301483  0.6335675043920935  1.0000
  H   H78       1.0  0.3111541418959134  0.3730181842258327  0.1335675044739644  1.0000
  H   H79       1.0  0.8111541421073947  0.1269818156450418  0.8664324953622937  1.0000
  H   H80       1.0  0.6888458585270493  0.8730181840967073  0.36643249544416473  1.0000
  H   H81       1.0  0.28326986824895395  0.655478035170039  0.5253615223983576  1.0000
  H   H82       1.0  0.21673013196252736  0.3445219645717101  0.025361522480228556  1.0000
  H   H83       1.0  0.7167301321740087  0.15547803529916443  0.9746384778095486  1.0000
  H   H84       1.0  0.7832698684604353  0.8445219644425846  0.47463847743790055  1.0000
  H   H85       1.0  0.1642229630943995  0.808117090868015  0.547771692577976  1.0000
  H   H86       1.0  0.33577703711708184  0.19188290887373413  0.04777169265984688  1.0000
  H   H87       1.0  0.8357770373285632  0.3081170909971404  0.9522283076299303  1.0000
  H   H88       1.0  0.6642229633058808  0.6918829087446087  0.4522283072582823  1.0000
  H   H89       1.0  0.08442646513039519  0.6673426484006083  0.5003079678285138  1.0000
  H   H90       1.0  0.4155735350810862  0.33265735134114083  0.00030796791038474033  1.0000
  H   H91       1.0  0.9155735352925675  0.16734264852973374  0.9996920319258735  1.0000
  H   H92       1.0  0.5844264641619905  0.8326573512120153  0.49969203200774437  1.0000
  H   H93       1.0  0.09457943985956747  0.25163974889185586  0.6376987491716128  1.0000
  H   H94       1.0  0.4054205603519139  0.7483602508498932  0.13769874925348372  1.0000
  H   H95       1.0  0.9054205605633951  0.7516397487627304  0.8623012505827745  1.0000
  H   H96       1.0  0.5945794400710488  0.24836025097901865  0.36230125066464536  1.0000
  C   C1        1.0  0.06496885018682443  0.498574998521629  0.784434527076937  1.0000
  C   C2        1.0  0.4350311500246569  0.50142500122012  0.2844345271588078  1.0000
  C   C3        1.0  0.9350311502361383  0.9985749983925035  0.7155654726774504  1.0000
  C   C4        1.0  0.5649688503983058  0.0014250013492455179  0.2155654727593213  1.0000
  C   C5        1.0  0.1958908740193383  0.38668115344002923  0.7711706577554664  1.0000
  C   C6        1.0  0.30410912619214303  0.6133188474159519  0.2711706578373374  1.0000
  C   C7        1.0  0.8041091264036244  0.8866811533109038  0.7288293424524398  1.0000
  C   C8        1.0  0.6958908730509337  0.11331884754507728  0.22882934253431064  1.0000
  C   C9        1.0  0.004319424703369593  0.4794434409856508  0.8497157149345823  1.0000
  C   C10       1.0  0.4956805755081118  0.5205565587560982  0.34971571501645327  1.0000
  C   C11       1.0  0.995680575719593  0.9794434408565255  0.6502842848198049  1.0000
  C   C12       1.0  0.5043194249148509  0.020556558885223692  0.15028428490167584  1.0000
  C   C13       1.0  0.13298157978884745  0.5181829080707873  0.894903640985805  1.0000
  C   C14       1.0  0.3670184204226339  0.48181709278519386  0.394903641067676  1.0000
  C   C15       1.0  0.8670184206341153  0.018182908199912674  0.6050963587685823  1.0000
  C   C16       1.0  0.6329815788204427  0.9818170926560683  0.10509635885045313  1.0000
  C   C17       1.0  0.4597177012769445  0.3485318861382118  0.7300889581131901  1.0000
  C   C18       1.0  0.040282297754650816  0.6514681136035373  0.23008895774154212  1.0000
  C   C19       1.0  0.5402822979661321  0.8485318860090864  0.7699110420947161  1.0000
  C   C20       1.0  0.9597177014884258  0.15146811373266275  0.26991104217658696  1.0000
  C   C21       1.0  0.6030254984605167  0.3621392952873225  0.7729604175186339  1.0000
  C   C22       1.0  0.8969745009940413  0.6378607055686586  0.2729604176005048  1.0000
  C   C23       1.0  0.39697450196244594  0.8621392951581971  0.7270395822357534  1.0000
  C   C24       1.0  0.10302549824903537  0.137860705697784  0.22703958231762428  1.0000
  C   C25       1.0  0.5144854869398504  0.38408103064119054  0.6659949965887189  1.0000
  C   C26       1.0  0.9855145125147075  0.6159189691005584  0.16599499667058978  1.0000
  C   C27       1.0  0.4855145134831123  0.8840810305120651  0.8340050031656684  1.0000
  C   C28       1.0  0.014485486728369076  0.11591896922968395  0.33400500324753934  1.0000
  C   C29       1.0  0.5139894085787465  0.2728492967627832  0.621511334154353  1.0000
  C   C30       1.0  0.9860105920556975  0.7271507029789659  0.12151133423622387  1.0000
  C   C31       1.0  0.4860105918442161  0.7728492966336578  0.8784886660535531  1.0000
  C   C32       1.0  0.01398940836726523  0.22715070310809135  0.37848866568190526  1.0000
  C   C33       1.0  0.5679911980733718  0.30424583449039844  0.563073870886198  1.0000
  C   C34       1.0  0.9320088013811862  0.6957541652513506  0.06307387096806888  1.0000
  C   C35       1.0  0.4320088023495909  0.804245834361273  0.9369261293217083  1.0000
  C   C36       1.0  0.06799119786189044  0.19575416538047608  0.4369261289500602  1.0000
  C   C37       1.0  0.6239395222416685  0.44610099398588254  0.5484312746049553  1.0000
  C   C38       1.0  0.8760604783927755  0.5538990068700984  0.048431274686826266  1.0000
  C   C39       1.0  0.3760604781812942  0.9461009938567572  0.9515687256029509  1.0000
  C   C40       1.0  0.12393952203018715  0.05389900699922395  0.45156872523130287  1.0000
  C   C41       1.0  0.6251295836071946  0.5572836069460062  0.5928095791547108  1.0000
  C   C42       1.0  0.8748704170272494  0.4427163927957429  0.09280957923658162  1.0000
  C   C43       1.0  0.37487041681576805  0.0572836070751316  0.9071904210531956  1.0000
  C   C44       1.0  0.12512958339571328  0.9427163926666174  0.4071904211350664  1.0000
  C   C45       1.0  0.5706541076285129  0.5263441684166219  0.6511627427817214  1.0000
  C   C46       1.0  0.9293458930059311  0.4736558313251272  0.15116274241007335  1.0000
  C   C47       1.0  0.4293458927944498  0.02634416854574737  0.8488372574261848  1.0000
  C   C48       1.0  0.07065410741703154  0.9736558311960016  0.3488372575080557  1.0000
  C   C49       1.0  0.11025432013797061  0.43461461238321497  0.5841541199968731  1.0000
  C   C50       1.0  0.3897456800735107  0.565385387358534  0.08415411962522502  1.0000
  C   C51       1.0  0.889745680284992  0.9346146122540896  0.9158458802110332  1.0000
  C   C52       1.0  0.610254319169566  0.06538538748765953  0.4158458802929041  1.0000
  C   C53       1.0  0.11049136986005385  0.601552812520018  0.5951030347046046  1.0000
  C   C54       1.0  0.3895086303514275  0.39844718722173095  0.09510303478647547  1.0000
  C   C55       1.0  0.8895086305629087  0.10155281264914356  0.9048969655033016  1.0000
  C   C56       1.0  0.6104913700715352  0.8984471870926055  0.4048969655851726  1.0000
  C   C57       1.0  0.1632884697621726  0.6877146848933539  0.5390396603806337  1.0000
  C   C58       1.0  0.33671153044930874  0.3122853148483952  0.0390396604625045  1.0000
  C   C59       1.0  0.8367115306607901  0.18771468502247932  0.9609603398272726  1.0000
  C   C60       1.0  0.6632884687937679  0.8122853147192698  0.46096033990914353  1.0000
  N   N1        1.0  0.9360342138247926  0.46891838422242627  0.7399311533502623  1.0000
  N   N2        1.0  0.5639657868096514  0.5310816166335548  0.23993115297861423  1.0000
  N   N3        1.0  0.06396578659817004  0.9689183840933007  0.760068846857644  1.0000
  N   N4        1.0  0.4360342136133113  0.031081616762680293  0.2600688469395149  1.0000
  N   N5        1.0  0.32942692472883595  0.44315354166978493  0.7487860855435858  1.0000
  N   N6        1.0  0.17057307430275936  0.5568464580719641  0.24878608562545673  1.0000
  N   N7        1.0  0.6705730745142408  0.9431535415406594  0.7512139146643204  1.0000
  N   N8        1.0  0.8294269249403173  0.0568464582010896  0.2512139142926724  1.0000
  O   O1        1.0  0.17069094727677026  0.2511659061291686  0.7805534682707416  1.0000
  O   O2        1.0  0.329309051754825  0.7488340936125804  0.28055346835261247  1.0000
  O   O3        1.0  0.8293090519663064  0.7511659071142751  0.7194465319371647  1.0000
  O   O4        1.0  0.6706909474882516  0.2488340937417059  0.21944653156551666  1.0000
  O   O5        1.0  0.8703287666898576  0.5724418075532144  0.8609609824799398  1.0000
  O   O6        1.0  0.6296712339445865  0.42755819330276673  0.3609609825618107  1.0000
  O   O7        1.0  0.1296712337331051  0.07244180656810781  0.6390390177279665  1.0000
  O   O8        1.0  0.37032876647837626  0.9275581931736412  0.13903901735631843  1.0000
  O   O9        1.0  0.6150500815608979  0.47830973442574104  0.8050789050606504  1.0000
  O   O10       1.0  0.8849499190735461  0.5216902653160079  0.30507890514252123  1.0000
  O   O11       1.0  0.38494991886206475  0.9783097342966157  0.694921094693737  1.0000
  O   O12       1.0  0.11505008134941656  0.02169026544513345  0.19492109477560787  1.0000
  O   O13       1.0  0.7058606964316867  0.2587865667297338  0.7691723772545938  1.0000
  O   O14       1.0  0.7941393042027572  0.7412134330120153  0.2691723773364647  1.0000
  O   O15       1.0  0.2941393039912759  0.7587865666006084  0.7308276229533124  1.0000
  O   O16       1.0  0.20586069622020542  0.24121343314114072  0.23082762258166442  1.0000
  O   O17       1.0  0.06351725646412537  0.35948159789191897  0.6384865223996758  1.0000
  O   O18       1.0  0.43648274374735596  0.6405184018498301  0.13848652248154672  1.0000
  O   O19       1.0  0.9364827439588372  0.8594815977627935  0.8615134773547116  1.0000
  O   O20       1.0  0.5635172566756067  0.14051840197895557  0.3615134774365824  1.0000
