data_image0
_chemical_formula_structural       H48C52N8S4
_chemical_formula_sum              "H48 C52 N8 S4"
_cell_length_a       8.217825193764897
_cell_length_b       12.997421505405105
_cell_length_c       10.92046148983795
_cell_angle_alpha    90.0
_cell_angle_beta     111.29061698640514
_cell_angle_gamma    90.0

_space_group_name_H-M_alt    "P 1"
_space_group_IT_number       1

loop_
  _space_group_symop_operation_xyz
  'x, y, z'

loop_
  _atom_site_type_symbol
  _atom_site_label
  _atom_site_symmetry_multiplicity
  _atom_site_fract_x
  _atom_site_fract_y
  _atom_site_fract_z
  _atom_site_occupancy
  H   H1        1.0  0.8401176304651555  0.28388737246580475  0.3672762565431441  1.0000
  H   H2        1.0  0.6598823691579214  0.7838873730272581  0.1327237435474393  1.0000
  H   H3        1.0  0.15988236960788232  0.7161126271183353  0.6327237437765325  1.0000
  H   H4        1.0  0.3401176308910451  0.21611262732626532  0.8672762558501034  1.0000
  H   H5        1.0  0.8318128580566125  0.43924216565769214  0.4980742936833604  1.0000
  H   H6        1.0  0.6681871428722432  0.9392421662191456  0.0019257067471329567  1.0000
  H   H7        1.0  0.16818714199235396  0.560757833926448  0.5019257057141822  1.0000
  H   H8        1.0  0.3318128572007947  0.06075783413437792  0.9980742935725437  1.0000
  H   H9        1.0  0.6119654551158583  0.45061578618223425  0.6070185896808882  1.0000
  H   H10       1.0  0.8880345449816629  0.9506157859743042  0.8929814103375598  1.0000
  H   H11       1.0  0.38803454495717965  0.5493842141712892  0.3929814106387885  1.0000
  H   H12       1.0  0.1119654550673036  0.049384213609835845  0.10701858905998292  1.0000
  H   H13       1.0  0.39948787572425604  0.3107729466433199  0.5804830299467869  1.0000
  H   H14       1.0  0.10051212479874275  0.81077294643539  0.9195169706019829  1.0000
  H   H15       1.0  0.6005121243487818  0.6892270537102037  0.4195169703728897  1.0000
  H   H16       1.0  0.8994878752742951  0.18922705314875016  0.08048302971769365  1.0000
  H   H17       1.0  0.14458882742114115  0.9953189965117463  0.4022588169357629  1.0000
  H   H18       1.0  0.35541117262741345  0.4953189967196761  0.09774118368514234  1.0000
  H   H19       1.0  0.8554111726518967  0.004681003841777285  0.5977411833839137  1.0000
  H   H20       1.0  0.6445888274456244  0.5046810036338474  0.9022588166345343  1.0000
  H   H21       1.0  0.1330324975055358  0.8362670946294916  0.27645243384155765  1.0000
  H   H22       1.0  0.36696750251894744  0.3362670940680381  0.22354756585721372  1.0000
  H   H23       1.0  0.8669675025434307  0.16373290572403199  0.7235475655559851  1.0000
  H   H24       1.0  0.6330324975540905  0.663732905516102  0.7764524344624629  1.0000
  H   H25       1.0  0.3518199499001776  0.8068883328619206  0.16839328011239382  1.0000
  H   H26       1.0  0.1481800501243056  0.3068883330698505  0.33160671958637755  1.0000
  H   H27       1.0  0.6481800501487888  0.1931116674916029  0.831606719285149  1.0000
  H   H28       1.0  0.8518199499487322  0.6931116672836729  0.6683932807332991  1.0000
  H   H29       1.0  0.5771502728117255  0.9396596674902818  0.18728118858474113  1.0000
  H   H30       1.0  0.9228497281171301  0.43965966769821174  0.3127188118457523  1.0000
  H   H31       1.0  0.4228497272613123  0.060340332093858313  0.8127188117349354  1.0000
  H   H32       1.0  0.07715027195590773  0.5603403318859284  0.6872811884739243  1.0000
  H   H33       1.0  0.2859135544820945  0.14961365984717218  0.49159883090131706  1.0000
  H   H34       1.0  0.21408644556646012  0.6496136604086256  0.008401169719588174  1.0000
  H   H35       1.0  0.7140864455909434  0.850386339736968  0.5084011694183594  1.0000
  H   H36       1.0  0.7859135532007991  0.35038633994489793  0.9915988302601785  1.0000
  H   H37       1.0  0.015392255303563753  0.15095982300674377  0.49677320464171726  1.0000
  H   H38       1.0  0.48460774474499085  0.6509598227988138  0.0032267959791879544  1.0000
  H   H39       1.0  0.9846077447694742  0.8490401773467796  0.5032267956779594  1.0000
  H   H40       1.0  0.515392255328047  0.3490401767853263  0.9967732043404887  1.0000
  H   H41       1.0  0.15145450413657052  0.09431797141380706  0.6315877512721038  1.0000
  H   H42       1.0  0.3485454950806495  0.5943179719752605  0.8684122489367561  1.0000
  H   H43       1.0  0.8485454959364673  0.905682028170333  0.3684122490475729  1.0000
  H   H44       1.0  0.6514545049923883  0.405682028378263  0.13158775138292053  1.0000
  H   H45       1.0  0.14451673166864612  0.22157448373912983  0.6214370332769855  1.0000
  H   H46       1.0  0.3554832688302812  0.7215744835311999  0.8785629663496504  1.0000
  H   H47       1.0  0.8554832683803203  0.7784255158450103  0.37856296612055723  1.0000
  H   H48       1.0  0.6445167312427565  0.27842551605294025  0.12143703397002614  1.0000
  C   C1        1.0  0.7439033117085432  0.29105247286370073  0.41413507992550475  1.0000
  C   C2        1.0  0.7560966879145339  0.7910524734251542  0.08586492016507868  1.0000
  C   C3        1.0  0.25609668836449473  0.7089475267204394  0.5858649203941719  1.0000
  C   C4        1.0  0.24390331215850408  0.20894752692836932  0.914135080154598  1.0000
  C   C5        1.0  0.739681283573219  0.3766606105652655  0.48740385516152435  1.0000
  C   C6        1.0  0.7603187173556366  0.8766606103573356  0.012596145268969119  1.0000
  C   C7        1.0  0.2603187164998188  0.6233393890188745  0.5125961451581523  1.0000
  C   C8        1.0  0.2396812826933298  0.12333938922680453  0.9874038541285736  1.0000
  C   C9        1.0  0.6150469535533521  0.38343936817987084  0.5483124709257813  1.0000
  C   C10       1.0  0.8849530465441688  0.883439367971941  0.9516875290926667  1.0000
  C   C11       1.0  0.38495304649561424  0.6165606321736526  0.45168752847176147  1.0000
  C   C12       1.0  0.11504695352886894  0.11656063238158257  0.048312471227009886  1.0000
  C   C13       1.0  0.4954677374182426  0.3056105573207841  0.5332775794898369  1.0000
  C   C14       1.0  0.004532263104756145  0.8056105578822376  0.9667224210589329  1.0000
  C   C15       1.0  0.5045322626547952  0.694389442263356  0.46672242082983967  1.0000
  C   C16       1.0  0.9954677369682817  0.1943894424712859  0.033277579260743706  1.0000
  C   C17       1.0  0.23950126181674655  0.9820438180520612  0.3557449931381576  1.0000
  C   C18       1.0  0.26049873820773667  0.4820438182599912  0.14425500656061374  1.0000
  C   C19       1.0  0.7604987382322199  0.01795618230146225  0.644255006259385  1.0000
  C   C20       1.0  0.7395012618653012  0.5179561820935323  0.8557449937590628  1.0000
  C   C21       1.0  0.2332574985265244  0.8935848071996495  0.2846971229921485  1.0000
  C   C22       1.0  0.2667425014979588  0.39358480740757945  0.21530287670662288  1.0000
  C   C23       1.0  0.766742501522442  0.10641519238449063  0.7153028764053941  1.0000
  C   C24       1.0  0.733257498575079  0.6064151921765607  0.7846971236130537  1.0000
  C   C25       1.0  0.355615614960437  0.8773896403419413  0.223225256001304  1.0000
  C   C26       1.0  0.14438438506404627  0.37738963978048795  0.27677474369746735  1.0000
  C   C27       1.0  0.6443843850885295  0.12261036001158215  0.7767747433962386  1.0000
  C   C28       1.0  0.8556156150089915  0.6226103598036522  0.7232252566222092  1.0000
  C   C29       1.0  0.4818141283978378  0.9503131390224944  0.2342124211452122  1.0000
  C   C30       1.0  0.018185871626645415  0.4503131384610409  0.26578757855355917  1.0000
  C   C31       1.0  0.5181858716511286  0.049686861331029175  0.7657875782523305  1.0000
  C   C32       1.0  0.9818141284463925  0.5496868611230992  0.7342124217661175  1.0000
  C   C33       1.0  0.6299871377700982  0.11717320080499555  0.3231711338367323  1.0000
  C   C34       1.0  0.8700128631587576  0.6171732005970656  0.17682886659376115  1.0000
  C   C35       1.0  0.37001286230293967  0.8828267995485279  0.6768288664829444  1.0000
  C   C36       1.0  0.12998713689020897  0.3828267997564579  0.8231711328037816  1.0000
  C   C37       1.0  0.6237541657900365  0.20908878879321202  0.396069350184713  1.0000
  C   C38       1.0  0.8762458338330406  0.7090887885852821  0.10393064990587043  1.0000
  C   C39       1.0  0.3762458342589301  0.7909112115603114  0.6039306492128298  1.0000
  C   C40       1.0  0.1237541662399973  0.2909112117682414  0.8960693504138062  1.0000
  C   C41       1.0  0.4965310862056446  0.21844797591732062  0.456133767323806  1.0000
  C   C42       1.0  0.0034689138188386277  0.7184479757093907  0.04386623237496533  1.0000
  C   C43       1.0  0.5034689138673932  0.7815520244362029  0.5438662329958706  1.0000
  C   C44       1.0  0.9965310862301279  0.28155202464413276  0.9561337670225775  1.0000
  C   C45       1.0  0.49420912682563656  0.04195491157790252  0.3071023956168659  1.0000
  C   C46       1.0  0.005790873222918111  0.5419549113699726  0.19289760500403935  1.0000
  C   C47       1.0  0.5057908732474014  0.9580450880062376  0.6928976047028107  1.0000
  C   C48       1.0  0.9942091268501198  0.4580450882141675  0.8071023953156373  1.0000
  C   C49       1.0  0.3693401304846151  0.057192547744248215  0.368203666978604  1.0000
  C   C50       1.0  0.13065986953986808  0.5571925483057016  0.13179633272016736  1.0000
  C   C51       1.0  0.6306598695884228  0.9428074518398919  0.6317963333410725  1.0000
  C   C52       1.0  0.8693401305090984  0.44280745204782185  0.8682036666773755  1.0000
  N   N1        1.0  0.37545103524824835  0.14317719320144479  0.44081803130749053  1.0000
  N   N2        1.0  0.12454896477623488  0.6431771929935148  0.05918196839128084  1.0000
  N   N3        1.0  0.6245489648007181  0.8568228071520787  0.5591819680900522  1.0000
  N   N4        1.0  0.8754510339910243  0.35682280736000865  0.9408180315884856  1.0000
  N   N5        1.0  0.13735555232647023  0.15537236667751336  0.5687770682085652  1.0000
  N   N6        1.0  0.36264444689074976  0.6553723664695834  0.9312229320002945  1.0000
  N   N7        1.0  0.8626444477465677  0.8446276329066267  0.43122293211111135  1.0000
  N   N8        1.0  0.637355553182288  0.3446276331145567  0.06877706831938207  1.0000
  S   S1        1.0  0.7915900813969939  0.09714131218064605  0.2636575418774083  1.0000
  S   S2        1.0  0.7084099195318617  0.5971413127420995  0.23634245855308514  1.0000
  S   S3        1.0  0.2084099186760439  0.9028586874034941  0.7363424584422683  1.0000
  S   S4        1.0  0.2915900805171047  0.402858687611424  0.7636575408444576  1.0000
