data_image0
_chemical_formula_structural       H82C60N4O10F2S2Cl4
_chemical_formula_sum              "H82 C60 N4 O10 F2 S2 Cl4"
_cell_length_a       8.630422488595729
_cell_length_b       12.94980911332326
_cell_length_c       14.371517098985318
_cell_angle_alpha    93.80706277421233
_cell_angle_beta     103.01588562205126
_cell_angle_gamma    95.22667069284002

_space_group_name_H-M_alt    "P 1"
_space_group_IT_number       1

loop_
  _space_group_symop_operation_xyz
  'x, y, z'

loop_
  _atom_site_type_symbol
  _atom_site_label
  _atom_site_symmetry_multiplicity
  _atom_site_fract_x
  _atom_site_fract_y
  _atom_site_fract_z
  _atom_site_occupancy
  H   H1        1.0  0.560136512310064  0.7403383757319031  0.7755967721040823  1.0000
  H   H2        1.0  0.8628179522117839  0.7038796246857566  0.05274983377414664  1.0000
  H   H3        1.0  0.07437779414841952  0.7826193298976918  0.818263985105139  1.0000
  H   H4        1.0  0.6720811154820019  0.745271280608695  0.6422184622863158  1.0000
  H   H5        1.0  0.8728340366231688  0.7362548278550648  0.5532334334174255  1.0000
  H   H6        1.0  0.9256016536588312  0.6587734221116308  0.6491250139030669  1.0000
  H   H7        1.0  0.03236896922448352  0.7837546811557757  0.6542885379324557  1.0000
  H   H8        1.0  0.8932947971134141  0.914635684270395  0.5554668587078582  1.0000
  H   H9        1.0  0.6867698703474711  0.8657529217087683  0.520025314626541  1.0000
  H   H10       1.0  0.6080620105954471  0.039042895331621225  0.5611232834736639  1.0000
  H   H11       1.0  0.734022083403879  0.048014914796052674  0.47937849765477175  1.0000
  H   H12       1.0  0.9692474073790013  0.10767313804971505  0.6157514701800044  1.0000
  H   H13       1.0  0.7234013738722895  0.09186437351086423  0.7396926075554993  1.0000
  H   H14       1.0  0.928274591680053  0.13819825054936524  0.7817017073589191  1.0000
  H   H15       1.0  0.010832060894940496  0.967850995127474  0.7340680561598549  1.0000
  H   H16       1.0  0.8789126854837476  0.9534710865950901  0.8125504613549515  1.0000
  H   H17       1.0  0.6842856651072854  0.23166082897606116  0.6139203172037976  1.0000
  H   H18       1.0  0.8895606812165167  0.27903111753978893  0.6668346146322565  1.0000
  H   H19       1.0  0.8303188390131858  0.4475635957984968  0.28023495890778244  1.0000
  H   H20       1.0  0.7035477129998716  0.4050829381897965  0.5959236945366868  1.0000
  H   H21       1.0  0.01568585083411853  0.24158349650865468  0.3863416005229077  1.0000
  H   H22       1.0  0.7914390506016681  0.28514268433411816  0.19306435477114023  1.0000
  H   H23       1.0  0.9636957197032179  0.21059022216074408  0.20690366421780826  1.0000
  H   H24       1.0  0.83145040790933  0.08672705184216428  0.3052910203778748  1.0000
  H   H25       1.0  0.6621299659627098  0.1644997453193424  0.2900812869752708  1.0000
  H   H26       1.0  0.4213770253212681  0.7255072900094864  0.19236722186837477  1.0000
  H   H27       1.0  0.6180010575546327  0.7243133176786359  0.1697582016883132  1.0000
  H   H28       1.0  0.5280014803323643  0.8448957760054583  0.1705822853450526  1.0000
  H   H29       1.0  0.6594123527251063  0.9060589617367508  0.6769500837976953  1.0000
  H   H30       1.0  0.4022639692766472  0.9796208719082521  0.2632764583232281  1.0000
  H   H31       1.0  0.15143224725628587  0.043387693162633745  0.9807428047901708  1.0000
  H   H32       1.0  0.8855726774535878  0.9518041992732356  0.18854785658869186  1.0000
  H   H33       1.0  0.010927807111210469  0.9305361338683323  0.3418391183995456  1.0000
  H   H34       1.0  0.20567227953507705  0.02910580507672477  0.4805798507917455  1.0000
  H   H35       1.0  0.1847486078700219  0.10525126180914281  0.3816550325911805  1.0000
  H   H36       1.0  0.3555626873274895  0.037764199962136515  0.41395997134716683  1.0000
  H   H37       1.0  0.2629902295670437  0.8838434812233382  0.5134029430649153  1.0000
  H   H38       1.0  0.06604504184149795  0.8184246970690359  0.4672369228848866  1.0000
  H   H39       1.0  0.24442383675402374  0.7061392200752621  0.5648586188738522  1.0000
  H   H40       1.0  0.38504554143232955  0.722077683322386  0.49308548788301476  1.0000
  H   H41       1.0  0.03898679208210674  0.6208891428919456  0.42198985055645544  1.0000
  H   H42       1.0  0.3084140286469253  0.6502566818664034  0.3162859261469356  1.0000
  H   H43       1.0  0.11388997033512298  0.5870714221783758  0.2657785478848785  1.0000
  H   H44       1.0  0.9896921231191146  0.7474219009585847  0.29142743983421515  1.0000
  H   H45       1.0  0.1357122959120864  0.7697536861319647  0.2226859847203526  1.0000
  H   H46       1.0  0.16193997593816384  0.4594160801815401  0.39472795109922226  1.0000
  H   H47       1.0  0.3559769458651551  0.5260855686561882  0.45020856780053525  1.0000
  H   H48       1.0  0.1769591378923706  0.29974291819755233  0.7736275967821887  1.0000
  H   H49       1.0  0.3501945044465  0.3524179700366583  0.4726578284173506  1.0000
  H   H50       1.0  0.012869880359542698  0.5150685958856158  0.6650565688764974  1.0000
  H   H51       1.0  0.3614492620814076  0.5706274171425842  0.7826491708008969  1.0000
  H   H52       1.0  0.2053526780803108  0.6589890501248704  0.7634001007799287  1.0000
  H   H53       1.0  0.035861149956155726  0.5364454946401319  0.8424651757495637  1.0000
  H   H54       1.0  0.19547609363175283  0.4515169588837681  0.862728859035156  1.0000
  H   H55       1.0  0.4018376800430604  0.01819268230432894  0.8804890322238383  1.0000
  H   H56       1.0  0.5917268786098373  0.010049537638669233  0.8498429768457816  1.0000
  H   H57       1.0  0.4794531411061709  0.8937356576470982  0.8735082802169383  1.0000
  H   H58       1.0  0.3237685324170768  0.8453681497442433  0.3630497230906372  1.0000
  H   H59       1.0  0.472611896803649  0.33415986236572925  0.155850652259131  1.0000
  H   H60       1.0  0.24682324121016863  0.5048470241260279  0.15338847981681872  1.0000
  H   H61       1.0  0.38144386685162485  0.4917769165033066  0.07776984799521064  1.0000
  H   H62       1.0  0.4576448938038229  0.5221396361060598  0.20258624590174878  1.0000
  H   H63       1.0  0.4336781605362371  0.38902526184707353  0.31967091520797813  1.0000
  H   H64       1.0  0.3506403693195013  0.2587320715352249  0.27851902756776914  1.0000
  H   H65       1.0  0.2227919052284098  0.35907935414290854  0.274959332258052  1.0000
  H   H66       1.0  0.19823130359163554  0.2178884523499612  0.11332193350097133  1.0000
  H   H67       1.0  0.1117104742470844  0.3326730240656173  0.08138430829728575  1.0000
  H   H68       1.0  0.2960673596136003  0.3557665156837883  0.9667278773398584  1.0000
  H   H69       1.0  0.3675159169398689  0.23552731638962415  0.9977839278654247  1.0000
  H   H70       1.0  0.1689804259739354  0.19220959837137325  0.8708539995813291  1.0000
  H   H71       1.0  0.553944315693396  0.4104605481132916  0.9044966118157312  1.0000
  H   H72       1.0  0.5670180627541127  0.22192891648987184  0.8560367449680775  1.0000
  H   H73       1.0  0.6452332841032579  0.25163618785673464  0.9807298782775556  1.0000
  H   H74       1.0  0.7781000036428471  0.23889407547707878  0.9039090005143285  1.0000
  H   H75       1.0  0.7949968964048516  0.3807074420088518  0.7802666145198579  1.0000
  H   H76       1.0  0.6753002451693051  0.48531421225479704  0.7800797122528675  1.0000
  H   H77       1.0  0.582489915051175  0.3569066195693416  0.7398415646077908  1.0000
  H   H78       1.0  0.9133302666581327  0.408037004451601  0.9790067861466023  1.0000
  H   H79       1.0  0.835058729656993  0.52378595608141  0.9422838721488458  1.0000
  H   H80       1.0  0.6561281291315467  0.5137725660985926  0.05432430825219101  1.0000
  H   H81       1.0  0.7315815363163278  0.39740993894051624  0.09436632486140406  1.0000
  H   H82       1.0  0.85360793993684  0.5618312369969569  0.18377825166755607  1.0000
  C   C1        1.0  0.8146217384514363  0.7619760614939542  0.7847760151268452  1.0000
  C   C2        1.0  0.6793328445611302  0.7412445501973429  0.8216499046463218  1.0000
  C   C3        1.0  0.6981249598781908  0.7233208856513477  0.91804404738896  1.0000
  C   C4        1.0  0.8486753139492773  0.7230588726009719  0.9788783247301482  1.0000
  C   C5        1.0  0.9818920821164838  0.7436985827272636  0.9404490048473098  1.0000
  C   C6        1.0  0.9675372011571853  0.7641100839816  0.8449255123136152  1.0000
  C   C7        1.0  0.7916051705370475  0.7818403779995864  0.6800592359530693  1.0000
  C   C8        1.0  0.9143951879661258  0.7390525688151568  0.6312432859857372  1.0000
  C   C9        1.0  0.7742816135275491  0.923474377893178  0.5680103615035815  1.0000
  C   C10       1.0  0.7311325835118699  0.03312046718249242  0.5533333110342799  1.0000
  C   C11       1.0  0.8470373307413374  0.11250799559907829  0.6260139222079686  1.0000
  C   C12       1.0  0.843673749345742  0.08470613769857792  0.7272623845059801  1.0000
  C   C13       1.0  0.8886010509989386  0.9750191929257624  0.7415488532416898  1.0000
  C   C14       1.0  0.8092063372459481  0.22320879432152105  0.6118548289811597  1.0000
  C   C15       1.0  0.7988426697564076  0.33341594647646017  0.4817697687068133  1.0000
  C   C16       1.0  0.8320498383663529  0.3447562462673058  0.39042418563944425  1.0000
  C   C17       1.0  0.8015490583075904  0.4366350499756973  0.34916639881824363  1.0000
  C   C18       1.0  0.7359693770670273  0.5186651306964165  0.39173488717335736  1.0000
  C   C19       1.0  0.7016764559868792  0.5014416816626871  0.48049957572047175  1.0000
  C   C20       1.0  0.732589534503015  0.41179992088983536  0.526610977434436  1.0000
  C   C21       1.0  0.89947384187551  0.2581807494677069  0.34483566383199626  1.0000
  C   C22       1.0  0.8677102400005123  0.23613183167528864  0.23761865715165736  1.0000
  C   C23       1.0  0.7897344516896497  0.1629537495729666  0.29509260145665006  1.0000
  C   C24       1.0  0.7169829045727293  0.6151259916583426  0.3405893581597026  1.0000
  C   C25       1.0  0.5389475865245913  0.7698203060497976  0.20113014242138144  1.0000
  C   C26       1.0  0.14319694501251232  0.9626536448957738  0.2367398164788047  1.0000
  C   C27       1.0  0.28979401939958377  0.9836163592651437  0.21159628840393765  1.0000
  C   C28       1.0  0.2908004894333178  0.009953385056769614  0.11928318894344903  1.0000
  C   C29       1.0  0.14971159640846807  0.017908489604933474  0.05118981749213914  1.0000
  C   C30       1.0  0.0056514993869388064  0.9969531056991136  0.07840035655462908  1.0000
  C   C31       1.0  7.843800144326824e-05  0.9682477888052214  0.16956198573634312  1.0000
  C   C32       1.0  0.13674038282163595  0.9422121575218698  0.33820892035110744  1.0000
  C   C33       1.0  0.22619731534113183  0.03283024801109078  0.40841679491224786  1.0000
  C   C34       1.0  0.19257731001152742  0.8191276719868084  0.4649850709249627  1.0000
  C   C35       1.0  0.25636554647633286  0.717213812047146  0.4916342376132042  1.0000
  C   C36       1.0  0.1666665920116505  0.6267117155579732  0.4205300086521667  1.0000
  C   C37       1.0  0.18193910346806205  0.6485695371854102  0.31964251170768676  1.0000
  C   C38       1.0  0.11778741597525014  0.7506743862213128  0.29297413668639827  1.0000
  C   C39       1.0  0.2268010009226789  0.5239165088503256  0.446831779139609  1.0000
  C   C40       1.0  0.23217188010361406  0.4185353548515457  0.5785639479868923  1.0000
  C   C41       1.0  0.18884675876205648  0.4051912669078044  0.6668467568891172  1.0000
  C   C42       1.0  0.2147120552975877  0.31248916519002123  0.7075246007330637  1.0000
  C   C43       1.0  0.2869787541943988  0.23220699535941605  0.6678239701510457  1.0000
  C   C44       1.0  0.33686490535545066  0.25321596560316845  0.5842110453723817  1.0000
  C   C45       1.0  0.3086280828431399  0.34284272350106115  0.5378895570268862  1.0000
  C   C46       1.0  0.12015949473871824  0.4915705758242988  0.7111774705969568  1.0000
  C   C47       1.0  0.23446172115774414  0.5795274997089528  0.770961534004795  1.0000
  C   C48       1.0  0.1350057598929375  0.5069497483348094  0.817667103266388  1.0000
  C   C49       1.0  0.2980474546794017  0.1336923529292243  0.7158979003976089  1.0000
  C   C50       1.0  0.4724821624814467  0.9698859390267925  0.8447729280654567  1.0000
  C   C51       1.0  0.357409454668685  0.36015368962467  0.16385946505745003  1.0000
  C   C52       1.0  0.36124223464839317  0.4763320923417681  0.14856970703529998  1.0000
  C   C53       1.0  0.34055166914450413  0.34080746169517134  0.26522652638957006  1.0000
  C   C54       1.0  0.22290003625362348  0.29504250489871175  0.08876943214161677  1.0000
  C   C55       1.0  0.26220480289505643  0.27945167102649726  0.9913449697333294  1.0000
  C   C56       1.0  0.6680866398381127  0.38394457813324673  0.8949435940187467  1.0000
  C   C57       1.0  0.664205505911256  0.2676293844270599  0.9097466284003372  1.0000
  C   C58       1.0  0.680714695032939  0.40273482518345544  0.7927597217628758  1.0000
  C   C59       1.0  0.8048643756157443  0.4487222955324703  0.9690325775255996  1.0000
  C   C60       1.0  0.7632827847510842  0.4712762845080939  0.06495730236448843  1.0000
  N   N1        1.0  0.7762240148165368  0.8980193445808259  0.6685675758364085  1.0000
  N   N2        1.0  0.6353275512040902  0.6879604245389391  0.3750500436250601  1.0000
  N   N3        1.0  0.2016994871163152  0.8400460039614763  0.3644638828409552  1.0000
  N   N4        1.0  0.37004237959564995  0.05854102326404838  0.6765354230844177  1.0000
  O   O1        1.0  0.8350032612120348  0.2433010392201962  0.5189581681765054  1.0000
  O   O2        1.0  0.7772973945749818  0.6237359764504341  0.2686438585398029  1.0000
  O   O3        1.0  0.5176818421523323  0.8543857186596214  0.36724884785158873  1.0000
  O   O4        1.0  0.7848570130854647  0.8545027491022755  0.3356127354509661  1.0000
  O   O5        1.0  0.1970159511426798  0.50804678217361  0.5396364472010444  1.0000
  O   O6        1.0  0.23964041360024543  0.12468217274029822  0.7884217453258828  1.0000
  O   O7        1.0  0.4689381348122896  0.8866988156404659  0.6729530925251025  1.0000
  O   O8        1.0  0.2135444005773292  0.8953020585411835  0.7178080549530691  1.0000
  O   O9        1.0  0.12773420383627504  0.22476610622348173  0.9236782228542045  1.0000
  O   O10       1.0  0.8951908021777145  0.531776219554655  0.13018247845582828  1.0000
  F   F1        1.0  0.6353221110020708  0.5739679337495545  0.5282721209248964  1.0000
  F   F2        1.0  0.42037352769519665  0.18611147508927256  0.5430502752453182  1.0000
  S   S1        1.0  0.6283380533590546  0.7957836337721667  0.3257563209145424  1.0000
  S   S2        1.0  0.37143973706180655  0.9490276226649154  0.7219143569681417  1.0000
  Cl  Cl1       1.0  0.5289196433139383  0.7005737368720973  0.9624286561046848  1.0000
  Cl  Cl2       1.0  0.1702401403476177  0.7428236155878974  0.014427074350557664  1.0000
  Cl  Cl3       1.0  0.47356468584463807  0.035934930795631356  0.08958251210975615  1.0000
  Cl  Cl4       1.0  0.8277973843973171  0.008599152985531216  0.9976767827694516  1.0000
