data_image0
_chemical_formula_structural       H96C76N12O28S8
_chemical_formula_sum              "H96 C76 N12 O28 S8"
_cell_length_a       8.375284705481326
_cell_length_b       9.568589955778256
_cell_length_c       26.326735852371137
_cell_angle_alpha    90.0
_cell_angle_beta     92.32022018999149
_cell_angle_gamma    90.0

_space_group_name_H-M_alt    "P 1"
_space_group_IT_number       1

loop_
  _space_group_symop_operation_xyz
  'x, y, z'

loop_
  _atom_site_type_symbol
  _atom_site_label
  _atom_site_symmetry_multiplicity
  _atom_site_fract_x
  _atom_site_fract_y
  _atom_site_fract_z
  _atom_site_occupancy
  H   H1        1.0  0.4960758709420536  0.42404068297960495  0.3777114493732224  1.0000
  H   H2        1.0  0.5039241288754569  0.9240406832002092  0.12228855067967488  1.0000
  H   H3        1.0  0.5039241296964128  0.5759593174616036  0.6222885508668643  1.0000
  H   H4        1.0  0.49607587057701125  0.0759593172409993  0.8777114491624649  1.0000
  H   H5        1.0  0.6014612428943991  0.9720907566305536  0.2369983154701255  1.0000
  H   H6        1.0  0.39853875692311147  0.47209075640994924  0.2630016845827718  1.0000
  H   H7        1.0  0.39853875774406733  0.027909243810655012  0.7630016847699613  1.0000
  H   H8        1.0  0.6014612425293566  0.5279092440312593  0.7369983152593681  1.0000
  H   H9        1.0  0.7043959963722772  0.10395800787756654  0.2721286100816872  1.0000
  H   H10       1.0  0.29560400345417065  0.6039580080981708  0.2278713895914938  1.0000
  H   H11       1.0  0.29560400308019097  0.8960419925636419  0.7278713897604525  1.0000
  H   H12       1.0  0.7043959971932331  0.3960419923430377  0.7721286102688767  1.0000
  H   H13       1.0  0.4280151712604747  0.09853630831266126  0.49243655161434624  1.0000
  H   H14       1.0  0.5719848285570358  0.5985363074881794  0.007563448438551055  1.0000
  H   H15       1.0  0.5719848281830561  0.9014636921285473  0.5075634486075098  1.0000
  H   H16       1.0  0.4280151720903678  0.401463691907943  0.9924365514218195  1.0000
  H   H17       1.0  0.8078297135947942  0.17101500404579795  0.5035734146596206  1.0000
  H   H18       1.0  0.1921702866786298  0.6710150032213161  0.9964265853697089  1.0000
  H   H19       1.0  0.19217028705260938  0.8289849963954106  0.49642658520075  1.0000
  H   H20       1.0  0.8078297127649011  0.32898499617480637  0.0035734148521473137  1.0000
  H   H21       1.0  0.8420544675304733  0.6037827262637782  0.5470224258391269  1.0000
  H   H22       1.0  0.1579455327429507  0.10378272604317387  0.9529775741902025  1.0000
  H   H23       1.0  0.15794553310799309  0.39621727417743036  0.4529775744009599  1.0000
  H   H24       1.0  0.8420544667095174  0.8962172743980346  0.04702242565193736  1.0000
  H   H25       1.0  0.454344234343667  0.6946619638545661  0.42615671482573375  1.0000
  H   H26       1.0  0.5456557654827807  0.1946619636339619  0.07384328484744729  1.0000
  H   H27       1.0  0.545655765108801  0.3053380365866424  0.573843285016406  1.0000
  H   H28       1.0  0.4543442351646229  0.8053380357621607  0.9261567150129232  1.0000
  H   H29       1.0  0.3816719710529235  0.62694012364668  0.3671553203732558  1.0000
  H   H30       1.0  0.618328028764587  0.12694012447116176  0.13284467967964148  1.0000
  H   H31       1.0  0.6183280283906074  0.3730598757494425  0.6328446798486004  1.0000
  H   H32       1.0  0.3816719718828166  0.8730598759700468  0.8671553201807292  1.0000
  H   H33       1.0  0.13715017122625045  0.07235536303673586  0.5004844736139531  1.0000
  H   H34       1.0  0.8628498290471736  0.5723553632573402  0.9995155264153762  1.0000
  H   H35       1.0  0.862849829412216  0.9276446374044728  0.49951552662613363  1.0000
  H   H36       1.0  0.13715017040529456  0.42764463718386847  0.0004844734267635904  1.0000
  H   H37       1.0  0.6661800240138827  0.6690694427901517  0.47362035648903666  1.0000
  H   H38       1.0  0.3338199769985634  0.16906944361463347  0.0263796435820914  1.0000
  H   H39       1.0  0.33381997662458374  0.3309305566059708  0.5263796437510502  1.0000
  H   H40       1.0  0.6661800236488403  0.8309305568265751  0.9736203562782791  1.0000
  H   H41       1.0  0.9540955884514757  0.1095216207239768  0.4238212568934458  1.0000
  H   H42       1.0  0.04590441137497192  0.6095216209445811  0.07617874277973519  1.0000
  H   H43       1.0  0.04590441219592779  0.8904783786721456  0.5761787429669247  1.0000
  H   H44       1.0  0.9540955880774961  0.39047837845154143  0.9238212570624046  1.0000
  H   H45       1.0  0.06307317233167152  0.1875765487177277  0.34297885276991286  1.0000
  H   H46       1.0  0.9369268286807745  0.687576548938332  0.1570211473012151  1.0000
  H   H47       1.0  0.936926828315732  0.8124234517234808  0.6570211470904577  1.0000
  H   H48       1.0  0.0630731719576919  0.3124234515028766  0.8429788529388715  1.0000
  H   H49       1.0  0.7739950672844558  0.9589068193333116  0.33724458610876634  1.0000
  H   H50       1.0  0.22600493253305473  0.4589068201577933  0.16275541394413096  1.0000
  H   H51       1.0  0.22600493216801235  0.04109318006281093  0.6627554137333734  1.0000
  H   H52       1.0  0.7739950681054116  0.5410931802834151  0.8372445862959558  1.0000
  H   H53       1.0  0.7633483955550775  0.8276988507818065  0.28764371865959226  1.0000
  H   H54       1.0  0.23665160427137027  0.3276988505612023  0.21235628101358875  1.0000
  H   H55       1.0  0.23665160389739062  0.172301149659402  0.7123562811825475  1.0000
  H   H56       1.0  0.7633483963760334  0.6723011488349202  0.7876437188467817  1.0000
  H   H57       1.0  0.48020164702062584  0.7896684396468565  0.30048866809978214  1.0000
  H   H58       1.0  0.51979835399182  0.28966843942625226  0.19951133197134588  1.0000
  H   H59       1.0  0.5197983536178405  0.21033155974926593  0.6995113321403047  1.0000
  H   H60       1.0  0.4802016466555835  0.7103315599698702  0.8004886678890246  1.0000
  H   H61       1.0  0.48767283384992777  0.9064447677332365  0.3534595331849909  1.0000
  H   H62       1.0  0.5123271659675828  0.4064447675126321  0.14654046686790634  1.0000
  H   H63       1.0  0.5123271667885386  0.09355523270797217  0.6465404670550958  1.0000
  H   H64       1.0  0.4876728334848853  0.5935552329285765  0.8534595329742335  1.0000
  H   H65       1.0  0.7142149284630775  0.7499000159022265  0.39205312502371886  1.0000
  H   H66       1.0  0.285785071354433  0.24990001568162232  0.10794687502917844  1.0000
  H   H67       1.0  0.2857850709893906  0.2500999845389819  0.6079468748184208  1.0000
  H   H68       1.0  0.7142149292840334  0.7500999837145002  0.8920531252109083  1.0000
  H   H69       1.0  0.6797583335723528  0.6358422137554282  0.3403026122067899  1.0000
  H   H70       1.0  0.3202416662451577  0.13584221353482379  0.15969738784610737  1.0000
  H   H71       1.0  0.32024166707505075  0.3641577866857805  0.6596973876535807  1.0000
  H   H72       1.0  0.6797583331983732  0.8641577869063847  0.8403026123757487  1.0000
  H   H73       1.0  0.6989213227741742  0.3904877455579191  0.2822201864244342  1.0000
  H   H74       1.0  0.3010786770433364  0.8904877457785234  0.2177798136284631  1.0000
  H   H75       1.0  0.301078676678294  0.6095122548832894  0.7177798134177057  1.0000
  H   H76       1.0  0.69892132359513  0.10951225466268519  0.7822201866116237  1.0000
  H   H77       1.0  0.8342026545648363  0.5351221678077999  0.27407363396905077  1.0000
  H   H78       1.0  0.1657973464476097  0.03512216758719555  0.22592636610207728  1.0000
  H   H79       1.0  0.16579734607363006  0.46487783263340876  0.725926366271036  1.0000
  H   H80       1.0  0.8342026541997939  0.9648778328540131  0.7740736337582932  1.0000
  H   H81       1.0  0.8553000615184921  0.42435180092004954  0.3297345693639331  1.0000
  H   H82       1.0  0.14469993829901834  0.9243518011406539  0.17026543068896421  1.0000
  H   H83       1.0  0.14469993793397595  0.5756481995211591  0.6702654304782067  1.0000
  H   H84       1.0  0.855300062339448  0.07564819930055476  0.8297345695511226  1.0000
  H   H85       1.0  0.9565025528531691  0.2899461302889897  0.16699966718758036  1.0000
  H   H86       1.0  0.043497446964341324  0.789946130509594  0.333000332865317  1.0000
  H   H87       1.0  0.043497446599298946  0.7100538691071329  0.8330003326545594  1.0000
  H   H88       1.0  0.9565025524791895  0.21005386888652858  0.6669996673565391  1.0000
  H   H89       1.0  0.918395019682109  0.4679293668860985  0.18523413783274995  1.0000
  H   H90       1.0  0.08160498013540142  0.9679293660616167  0.3147658622201474  1.0000
  H   H91       1.0  0.0816049809563573  0.5320706335551102  0.8147658624073368  1.0000
  H   H92       1.0  0.9183950193170667  0.03207063333450585  0.6852341376219924  1.0000
  H   H93       1.0  0.7614574094325915  0.3402630340569535  0.1882859641423481  1.0000
  H   H94       1.0  0.238542590384919  0.8402630342775578  0.3117140359105492  1.0000
  H   H95       1.0  0.23854259120587487  0.659736965339169  0.8117140360977387  1.0000
  H   H96       1.0  0.7614574090675492  0.15973696616365077  0.6882859639315907  1.0000
  C   C1        1.0  0.3587858092952015  0.24983936933741882  0.3200894566234023  1.0000
  C   C2        1.0  0.641214190522309  0.7498393695580231  0.179910543429495  1.0000
  C   C3        1.0  0.6412141913522021  0.7501606300587037  0.6799105432369683  1.0000
  C   C4        1.0  0.3587858089212218  0.2501606308831854  0.820089456792361  1.0000
  C   C5        1.0  0.30809486703794753  0.19367349197369513  0.37101279711195273  1.0000
  C   C6        1.0  0.691905132779563  0.6936734911492134  0.12898720294094454  1.0000
  C   C7        1.0  0.6919051336005189  0.8063265084675134  0.6289872031281342  1.0000
  C   C8        1.0  0.30809486667290514  0.30632650824690916  0.8710127969011954  1.0000
  C   C9        1.0  0.40849793499807935  0.1663267594656328  0.4139272776953173  1.0000
  C   C10       1.0  0.5915020648283684  0.6663267596862371  0.08607272197786377  1.0000
  C   C11       1.0  0.5915020644543887  0.8336732409755757  0.5860727221468226  1.0000
  C   C12       1.0  0.40849793581903526  0.33367324075497146  0.9139272778825067  1.0000
  C   C13       1.0  0.3473332715048716  0.12116732406323505  0.4599592332240643  1.0000
  C   C14       1.0  0.6526667283126388  0.6211673232387532  0.04004076682883299  1.0000
  C   C15       1.0  0.6526667291335948  0.8788326763779735  0.5400407670160224  1.0000
  C   C16       1.0  0.34733327113982926  0.3788326761573692  0.9599592330133068  1.0000
  C   C17       1.0  0.6323699574556562  0.45776845702902086  0.44519491725240296  1.0000
  C   C18       1.0  0.3676300423618544  0.9577684572496252  0.054805082800494356  1.0000
  C   C19       1.0  0.36763004199681204  0.5422315423671016  0.5548050825897369  1.0000
  C   C20       1.0  0.6323699570816764  0.04223154214649728  0.9451949174213616  1.0000
  C   C21       1.0  0.7767406657217455  0.27976489350799766  0.49645040643576116  1.0000
  C   C22       1.0  0.2232593340957649  0.7797648937286019  0.0035495936171361475  1.0000
  C   C23       1.0  0.22325933373072251  0.7202351058881248  0.5035495934063787  1.0000
  C   C24       1.0  0.7767406665427014  0.22023510671260663  0.9964504066229507  1.0000
  C   C25       1.0  0.794653478283434  0.5243459530805994  0.5209849634511353  1.0000
  C   C26       1.0  0.20534652079505444  0.024345952859995097  0.9790150365599632  1.0000
  C   C27       1.0  0.2053465211690341  0.4756540473606091  0.47901503639100446  1.0000
  C   C28       1.0  0.7946534786484765  0.9756540465361273  0.020984963661892855  1.0000
  C   C29       1.0  0.48897768998630353  0.6362247842299616  0.3924077736984625  1.0000
  C   C30       1.0  0.5110223098312071  0.13622478400935742  0.10759222635443474  1.0000
  C   C31       1.0  0.5110223094572274  0.36377521516616074  0.6075922265233935  1.0000
  C   C32       1.0  0.4889776896212611  0.8637752153867649  0.892407773487705  1.0000
  C   C33       1.0  0.677050687047705  0.31495047482729005  0.455186036803883  1.0000
  C   C34       1.0  0.32294931276980554  0.8149504750478943  0.04481396324901433  1.0000
  C   C35       1.0  0.32294931239582586  0.6850495245688325  0.5448139634179731  1.0000
  C   C36       1.0  0.6770506878775981  0.18504952434822816  0.9551860366113561  1.0000
  C   C37       1.0  0.8370616441006212  0.3838134204697765  0.5291176183982805  1.0000
  C   C38       1.0  0.16293835617280267  0.8838134206903807  0.9708823816310489  1.0000
  C   C39       1.0  0.16293835653784505  0.616186579971432  0.4708823818418063  1.0000
  C   C40       1.0  0.8370616432796654  0.11618657975082777  0.029117618211091004  1.0000
  C   C41       1.0  0.18360627818603936  0.10384942761602313  0.46418481572791215  1.0000
  C   C42       1.0  0.8163937216404085  0.6038494278366273  0.035815183945268864  1.0000
  C   C43       1.0  0.8163937212664288  0.8961505717800993  0.5358151841142277  1.0000
  C   C44       1.0  0.1836062778120597  0.39615057155949507  0.9641848158968709  1.0000
  C   C45       1.0  0.69562037280782  0.5597638204535603  0.4800640676199023  1.0000
  C   C46       1.0  0.30437962700969057  0.05976382023295599  0.019935932432994987  1.0000
  C   C47       1.0  0.3043796278306464  0.4402361799876483  0.5199359326201844  1.0000
  C   C48       1.0  0.6956203724427775  0.9402361802082525  0.9800640674091449  1.0000
  C   C49       1.0  0.08197033100678401  0.1275108229779676  0.42161235816309434  1.0000
  C   C50       1.0  0.9180296688107265  0.6275108231985719  0.078387641889803  1.0000
  C   C51       1.0  0.9180296696316824  0.8724891764181549  0.5783876420769924  1.0000
  C   C52       1.0  0.08197033064174163  0.3724891772426367  0.9216123579523366  1.0000
  C   C53       1.0  0.14362789107545415  0.17129521879137607  0.3759868567327808  1.0000
  C   C54       1.0  0.8563721087420564  0.6712952190119803  0.12401314332011647  1.0000
  C   C55       1.0  0.8563721083680768  0.8287047806047464  0.6240131434890752  1.0000
  C   C56       1.0  0.14362789071041174  0.32870478038414214  0.8759868565220232  1.0000
  C   C57       1.0  0.6964027239280904  0.9103945994403811  0.30773232288395286  1.0000
  C   C58       1.0  0.3035972758894201  0.4103946002648629  0.1922676771689444  1.0000
  C   C59       1.0  0.30359727552437765  0.08960539995574134  0.6922676769581869  1.0000
  C   C60       1.0  0.6964027247490463  0.5896054001763456  0.8077323230711424  1.0000
  C   C61       1.0  0.5573330092467893  0.8311933144545662  0.3317755746114279  1.0000
  C   C62       1.0  0.4426669905707212  0.331193314233962  0.16822442544146943  1.0000
  C   C63       1.0  0.44266699020567885  0.16880668598664234  0.6682244252307119  1.0000
  C   C64       1.0  0.5573330100677452  0.6688066862072466  0.8317755747986173  1.0000
  C   C65       1.0  0.6215552343417122  0.7119829589819533  0.3646675793240023  1.0000
  C   C66       1.0  0.37844476547579836  0.21198295876134896  0.13533242072889495  1.0000
  C   C67       1.0  0.3784447663056915  0.2880170414592553  0.6353324205363682  1.0000
  C   C68       1.0  0.6215552339677325  0.7880170416798595  0.8646675794929611  1.0000
  C   C69       1.0  0.8213431145599797  0.42900409244949456  0.2891527136656996  1.0000
  C   C70       1.0  0.17865688525753085  0.9290040916250127  0.2108472863871977  1.0000
  C   C71       1.0  0.17865688489248846  0.570995907991714  0.7108472861764401  1.0000
  C   C72       1.0  0.821343114186  0.07099590777110973  0.7891527138346583  1.0000
  C   C73       1.0  0.8906088506129989  0.3579244325264268  0.19233264665896124  1.0000
  C   C74       1.0  0.10939114920451158  0.8579244327470311  0.307667353393936  1.0000
  C   C75       1.0  0.10939114883946918  0.6420755679147817  0.8076673531831785  1.0000
  C   C76       1.0  0.890608851442892  0.14207556769417742  0.6923326464664346  1.0000
  N   N1        1.0  0.5337762081112706  0.49404032065825  0.406069563732617  1.0000
  N   N2        1.0  0.4662237917062399  0.9940403208788542  0.09393043632028027  1.0000
  N   N3        1.0  0.46622379252719587  0.5059596797829585  0.5939304365074697  1.0000
  N   N4        1.0  0.5337762077462281  0.005959679562354267  0.9060695635218594  1.0000
  N   N5        1.0  0.6425614884782056  0.011443581604609994  0.27189358533744235  1.0000
  N   N6        1.0  0.3574385113393049  0.5114435807801282  0.22810641471545495  1.0000
  N   N7        1.0  0.35743851096532525  0.9885564188365986  0.7281064148844137  1.0000
  N   N8        1.0  0.6425614881131632  0.4885564186159943  0.7718935851266848  1.0000
  N   N9        1.0  0.9429270685222007  0.3463259534910721  0.5711686437810948  1.0000
  N   N10       1.0  0.05707293175122326  0.8463259537116763  0.9288313562482347  1.0000
  N   N11       1.0  0.05707293092133014  0.6536740459050504  0.42883135644076137  1.0000
  N   N12       1.0  0.9429270688961804  0.15367404672953217  0.07116864361213594  1.0000
  O   O1        1.0  0.682673093746815  0.0474256648155314  0.43562066885222855  1.0000
  O   O2        1.0  0.3173269060796328  0.5474256650361357  0.0643793308209525  1.0000
  O   O3        1.0  0.31732690570565314  0.9525743345805912  0.5643793309899112  1.0000
  O   O4        1.0  0.6826730933728352  0.45257433540507286  0.9356206690211872  1.0000
  O   O5        1.0  0.6689011540752633  0.21416649782996405  0.3627285731399199  1.0000
  O   O6        1.0  0.3310988469371827  0.7141664980505683  0.13727142693120808  1.0000
  O   O7        1.0  0.33109884657214034  0.7858335026112445  0.6372714267204507  1.0000
  O   O8        1.0  0.6689011537012837  0.2858335023906402  0.8627285733088788  1.0000
  O   O9        1.0  0.3397629147724854  0.17367182183373628  0.2816030764075204  1.0000
  O   O10       1.0  0.6602370850450252  0.6736718220543405  0.21839692364537686  1.0000
  O   O11       1.0  0.6602370846710455  0.8263281775623862  0.7183969238143356  1.0000
  O   O12       1.0  0.339762914407443  0.32632817838686795  0.781603076196763  1.0000
  O   O13       1.0  0.40562693785190224  0.37733680789818475  0.32056775437076424  1.0000
  O   O14       1.0  0.5943730619656082  0.877336807073703  0.17943224568213306  1.0000
  O   O15       1.0  0.5943730615916286  0.6226631925430238  0.6794322458510919  1.0000
  O   O16       1.0  0.4056269386817954  0.12266319232241954  0.8205677541782374  1.0000
  O   O17       1.0  0.9882322857557531  0.22177269898774798  0.5750376293464805  1.0000
  O   O18       1.0  0.01176771451767103  0.7217726981632662  0.9249623706828488  1.0000
  O   O19       1.0  0.011767714882713422  0.7782273014534605  0.4249623708936063  1.0000
  O   O20       1.0  0.9882322849347971  0.27822730123285627  0.075037629159291  1.0000
  O   O21       1.0  0.9856407267717491  0.43947452649077134  0.6021522540888846  1.0000
  O   O22       1.0  0.014359273501674786  0.9394745267113755  0.8978477459404447  1.0000
  O   O23       1.0  0.014359272671781668  0.5605254739504372  0.39784774613297136  1.0000
  O   O24       1.0  0.9856407271457287  0.06052547372983291  0.10215225391992591  1.0000
  O   O25       1.0  0.9174707586101344  0.1688001562889242  0.26684255922805167  1.0000
  O   O26       1.0  0.08252924120737612  0.6688001565095285  0.23315744082484563  1.0000
  O   O27       1.0  0.08252924084233373  0.8311998431071982  0.733157440614088  1.0000
  O   O28       1.0  0.9174707594310904  0.331199842886594  0.7668425594152412  1.0000
  S   S1        1.0  0.6204403568778837  0.17634144506119775  0.4131178868376099  1.0000
  S   S2        1.0  0.3795596429485641  0.6763414452818021  0.08688211283557111  1.0000
  S   S3        1.0  0.37955964376951995  0.8236585553800108  0.5868821130227606  1.0000
  S   S4        1.0  0.620440356503904  0.3236585551594065  0.9131178870065686  1.0000
  S   S5        1.0  0.957872722833633  0.3205799448170111  0.256313175753064  1.0000
  S   S6        1.0  0.04212727699281491  0.8205799450376153  0.243686823920117  1.0000
  S   S7        1.0  0.04212727661883527  0.6794200545791115  0.7436868240890758  1.0000
  S   S8        1.0  0.9578727236545888  0.17942005540359318  0.7563131759402534  1.0000
