data_image0
_chemical_formula_structural       H44C20N4O8S2
_chemical_formula_sum              "H44 C20 N4 O8 S2"
_cell_length_a       9.837287362161996
_cell_length_b       4.645838361790867
_cell_length_c       16.08265135962938
_cell_angle_alpha    90.0
_cell_angle_beta     106.62380613039872
_cell_angle_gamma    90.0

_space_group_name_H-M_alt    "P 1"
_space_group_IT_number       1

loop_
  _space_group_symop_operation_xyz
  'x, y, z'

loop_
  _atom_site_type_symbol
  _atom_site_label
  _atom_site_symmetry_multiplicity
  _atom_site_fract_x
  _atom_site_fract_y
  _atom_site_fract_z
  _atom_site_occupancy
  H   H1        1.0  0.14419734470704446  0.40797369223783614  0.3958639931934363  1.0000
  H   H2        1.0  0.8558026551520294  0.9079736920450973  0.6041360066975338  1.0000
  H   H3        1.0  0.15299759928727952  0.7755909761378396  0.3846877002859007  1.0000
  H   H4        1.0  0.8470024016287077  0.2755909763305784  0.6153123004141243  1.0000
  H   H5        1.0  0.09730636506505838  0.6388111765593097  0.4663917202122837  1.0000
  H   H6        1.0  0.9026936358548893  0.1388111767520486  0.5336082798666508  1.0000
  H   H7        1.0  0.9086854014282107  0.8315208147945243  0.34102000732316806  1.0000
  H   H8        1.0  0.09131459843086298  0.3315208149872632  0.658979992567802  1.0000
  H   H9        1.0  0.970716149505252  0.26150801327743006  0.2617466156609498  1.0000
  H   H10       1.0  0.029283850353821892  0.7615080130846912  0.7382533842300202  1.0000
  H   H11       1.0  0.8246007421923508  0.4903125706512776  0.21582728715956004  1.0000
  H   H12       1.0  0.17539925766672293  0.9903125704585386  0.7841727127314099  1.0000
  H   H13       1.0  0.9898520339421033  0.8756499501699898  0.1962095558251031  1.0000
  H   H14       1.0  0.010147965913010029  0.3756499503627287  0.8037904446869576  1.0000
  H   H15       1.0  0.13738307562460114  0.6598390712883768  0.24581762552226893  1.0000
  H   H16       1.0  0.8626169252953465  0.15983907148111573  0.7541823745566655  1.0000
  H   H17       1.0  0.08113037047619305  0.6361791263139615  0.08324096852845199  1.0000
  H   H18       1.0  0.9188696293828809  0.13617912650670036  0.916759031362518  1.0000
  H   H19       1.0  0.909595068382888  0.5011927447046243  0.07661029494558635  1.0000
  H   H20       1.0  0.09040493147618579  0.001192744897363143  0.9233897049453836  1.0000
  H   H21       1.0  0.06185409911971645  0.292883396717118  0.12709718217910349  1.0000
  H   H22       1.0  0.9381459017962707  0.7928833965243791  0.8729028185209217  1.0000
  H   H23       1.0  0.6461929204439452  0.1862838464458308  0.39777131339514915  1.0000
  H   H24       1.0  0.3538070794151287  0.686283846253092  0.602228686495821  1.0000
  H   H25       1.0  0.6550419536592438  0.817956481493934  0.3868640410663758  1.0000
  H   H26       1.0  0.3449580472607039  0.31795648168667284  0.6131359590125587  1.0000
  H   H27       1.0  0.598828946129902  0.9560716224074147  0.4684432227703495  1.0000
  H   H28       1.0  0.4011710537252113  0.45607162260015355  0.5315567777417112  1.0000
  H   H29       1.0  0.41151828980614746  0.7621347438861644  0.3418304569357655  1.0000
  H   H30       1.0  0.5884817100529264  0.26213474407890325  0.6581695429552046  1.0000
  H   H31       1.0  0.32911702597709047  0.10175941201229446  0.21766770728678345  1.0000
  H   H32       1.0  0.6708829738819833  0.6017594118195556  0.7823322926041866  1.0000
  H   H33       1.0  0.4707276768829279  0.3404512698952998  0.26523769307722367  1.0000
  H   H34       1.0  0.5292723240370197  0.840451269702561  0.7347623070017107  1.0000
  H   H35       1.0  0.5064139349678125  0.7349036695034489  0.19566596529698352  1.0000
  H   H36       1.0  0.4935860648912613  0.23490366969618776  0.8043340345939864  1.0000
  H   H37       1.0  0.6469439646963789  0.9632800522734702  0.2504998254824331  1.0000
  H   H38       1.0  0.35305603516269485  0.4632800503137451  0.7495001744085369  1.0000
  H   H39       1.0  0.351244570229453  0.15537491272549228  0.9801629702790368  1.0000
  H   H40       1.0  0.6487554296256604  0.6553749146852175  0.019837030233023845  1.0000
  H   H41       1.0  0.2817282680106781  0.18194845454635114  0.07099827904905932  1.0000
  H   H42       1.0  0.7182717329092695  0.6819484565060764  0.9290017210298752  1.0000
  H   H43       1.0  0.33844648049743964  0.8382673237255664  0.040903082529715744  1.0000
  H   H44       1.0  0.6615535193576737  0.3382673239183053  0.959096917982345  1.0000
  C   C1        1.0  0.854976589253959  0.42396177968635584  0.38692884675399836  1.0000
  C   C2        1.0  0.14502341060115428  0.923961779493617  0.6130711537580623  1.0000
  C   C3        1.0  0.9460983760384802  0.6082254310093451  0.3446281458087936  1.0000
  C   C4        1.0  0.05390162382059345  0.10822543120208399  0.6553718540821765  1.0000
  C   C5        1.0  0.9369249656840611  0.4883265975541758  0.25427481935601987  1.0000
  C   C6        1.0  0.0630750341750126  0.9883265973614369  0.7457251805349501  1.0000
  C   C7        1.0  0.026141802936963297  0.6508802146173591  0.20580162664028356  1.0000
  C   C8        1.0  0.9738581969221104  0.15088021481009803  0.7941983732506865  1.0000
  C   C9        1.0  0.01946014013232988  0.5134686754535398  0.1184348975365283  1.0000
  C   C10       1.0  0.980539859726744  0.013468675646278704  0.8815651023544417  1.0000
  C   C11       1.0  0.3562686683573444  0.16956227674187452  0.3877463354223364  1.0000
  C   C12       1.0  0.6437313315017293  0.6695622765491357  0.6122536644686337  1.0000
  C   C13       1.0  0.4486851394352839  0.9854427690926387  0.34641248767116306  1.0000
  C   C14       1.0  0.55131486042379  0.48544276928537744  0.6535875122198069  1.0000
  C   C15       1.0  0.44053050953502504  0.11201677274871716  0.25700065560197916  1.0000
  C   C16       1.0  0.5594694903240489  0.6120167725559783  0.7429993442889908  1.0000
  C   C17       1.0  0.5358402566472887  0.961792790026719  0.21036328708334476  1.0000
  C   C18       1.0  0.46415974321178494  0.46179279021945796  0.7896367128076252  1.0000
  C   C19       1.0  0.3595909395249248  0.07099626252878397  0.04520864671846924  1.0000
  C   C20       1.0  0.6404090603341489  0.5709962623360451  0.9547913531725007  1.0000
  N   N1        1.0  0.09505112761294904  0.6065967690950113  0.40118608829186336  1.0000
  N   N2        1.0  0.9049488722461247  0.10659676928775011  0.5988139115991067  1.0000
  N   N3        1.0  0.5972247365939144  0.9874875367449376  0.40324494632930236  1.0000
  N   N4        1.0  0.40277526326515944  0.4874875369376766  0.5967550535616677  1.0000
  O   O1        1.0  0.9142605155091549  0.21336422682124762  0.4327319523103934  1.0000
  O   O2        1.0  0.08573948434991872  0.7133642266285087  0.5672680475805766  1.0000
  O   O3        1.0  0.7236877357458625  0.4886040867605594  0.3694485580098384  1.0000
  O   O4        1.0  0.2763122641132112  0.9886040887202846  0.6305514418811317  1.0000
  O   O5        1.0  0.4153176378806135  0.38193871198652696  0.4328312219425582  1.0000
  O   O6        1.0  0.5846823619744997  0.881938711793788  0.5671687785695025  1.0000
  O   O7        1.0  0.2250073879637262  0.10516096384629074  0.36966934732418877  1.0000
  O   O8        1.0  0.774992611891387  0.6051609636535519  0.6303306531878718  1.0000
  S   S1        1.0  0.5389549632732836  0.13930640922051382  0.11067732087793881  1.0000
  S   S2        1.0  0.461045037646664  0.6393064090277749  0.8893226792009957  1.0000
