data_image0
_chemical_formula_structural       H20C8N8O12
_chemical_formula_sum              "H20 C8 N8 O12"
_cell_length_a       5.079258036885391
_cell_length_b       12.188188319121796
_cell_length_c       6.862137629512085
_cell_angle_alpha    90.0
_cell_angle_beta     97.01584920981597
_cell_angle_gamma    90.0

_space_group_name_H-M_alt    "P 1"
_space_group_IT_number       1

loop_
  _space_group_symop_operation_xyz
  'x, y, z'

loop_
  _atom_site_type_symbol
  _atom_site_label
  _atom_site_symmetry_multiplicity
  _atom_site_fract_x
  _atom_site_fract_y
  _atom_site_fract_z
  _atom_site_occupancy
  H   H1        1.0  0.4521882823905752  0.19564243902097944  0.20610909355737905  1.0000
  H   H2        1.0  0.5478117190167413  0.6956424390570062  0.2938909064270903  1.0000
  H   H3        1.0  0.5478117177927275  0.8043575610510741  0.7938909076113926  1.0000
  H   H4        1.0  0.4521882811832559  0.30435756101504735  0.7061090932859705  1.0000
  H   H5        1.0  0.6746908425850661  0.29268703736742385  0.3273067541399374  1.0000
  H   H6        1.0  0.3253091568386764  0.7926870374034507  0.1726932456529342  1.0000
  H   H7        1.0  0.3253091576149311  0.7073129627046298  0.6726932455731235  1.0000
  H   H8        1.0  0.6746908433613208  0.20731296266860297  0.8273067540601265  1.0000
  H   H9        1.0  0.05590916666235325  0.22871791746329537  0.512721736165848  1.0000
  H   H10       1.0  0.9440908343138987  0.7287179174993221  0.987278263467402  1.0000
  H   H11       1.0  0.9440908335376439  0.7712820826087583  0.48727826354721276  1.0000
  H   H12       1.0  0.055909165886098525  0.27128208257273145  0.012721736245658801  1.0000
  H   H13       1.0  0.1078241389850249  0.08524588337463948  0.5487154322765958  1.0000
  H   H14       1.0  0.892175861991227  0.5852458834106663  0.951284567356654  1.0000
  H   H15       1.0  0.8921758612149724  0.9147541166974141  0.45128456743646495  1.0000
  H   H16       1.0  0.1078241382087702  0.4147541166613873  0.04871543235640663  1.0000
  H   H17       1.0  0.4665536394447539  0.9995000939465107  0.2289880693356017  1.0000
  H   H18       1.0  0.5334463599789886  0.49950009391048383  0.27101193045726985  1.0000
  H   H19       1.0  0.5334463607385489  0.0004999061255429485  0.7710119318331699  1.0000
  H   H20       1.0  0.46655364022100854  0.5004999061615698  0.7289880692557908  1.0000
  C   C1        1.0  0.7701178201066966  0.12931616321740308  0.37236558287614324  1.0000
  C   C2        1.0  0.2298821793170458  0.6293161632534299  0.12763441691672825  1.0000
  C   C3        1.0  0.2298821800933005  0.8706838368546506  0.6276344168369175  1.0000
  C   C4        1.0  0.7701178208662569  0.37068383681862377  0.8723655842520435  1.0000
  C   C5        1.0  0.12571786673590624  0.027495623732219025  0.05355029022106087  1.0000
  C   C6        1.0  0.8742821346714101  0.5274956237682459  0.4464497097634085  1.0000
  C   C7        1.0  0.8742821334640909  0.9725043755193681  0.9464497094919999  1.0000
  C   C8        1.0  0.125717865528587  0.4725043754833413  0.5535502899496523  1.0000
  N   N1        1.0  0.9974033856909515  0.14955750208914903  0.48605571240506135  1.0000
  N   N2        1.0  0.002596613732790884  0.6495575021251758  0.01394428738781022  1.0000
  N   N3        1.0  0.0025966144923511227  0.8504424979829046  0.5139442887637103  1.0000
  N   N4        1.0  0.9974033864672064  0.35044249794687776  0.9860557123252505  1.0000
  N   N5        1.0  0.6164658166200259  0.21339414044985838  0.30201891622158233  1.0000
  N   N6        1.0  0.3835341828037166  0.7133941404858851  0.1979810835712892  1.0000
  N   N7        1.0  0.3835341835799713  0.7866058596221952  0.6979810834914784  1.0000
  N   N8        1.0  0.6164658173962806  0.2866058595861684  0.8020189161417717  1.0000
  O   O1        1.0  0.7014009972845909  0.02912328483168499  0.3311187148348942  1.0000
  O   O2        1.0  0.29859900213915164  0.5291232848677118  0.16888128495797733  1.0000
  O   O3        1.0  0.29859900291540636  0.9708767152403687  0.6688812848781666  1.0000
  O   O4        1.0  0.7014009980608457  0.4708767152043419  0.8311187147550834  1.0000
  O   O5        1.0  0.15957243389490292  0.12777724295223347  0.04351752605816557  1.0000
  O   O6        1.0  0.8404275675124134  0.6277772429882603  0.45648247392630376  1.0000
  O   O7        1.0  0.8404275662883998  0.8722227571198202  0.956482475110606  1.0000
  O   O8        1.0  0.15957243268758367  0.3722227570837933  0.5435175257867569  1.0000
  O   O9        1.0  0.28864435283189194  0.9587928200671267  0.15130860201911325  1.0000
  O   O10       1.0  0.7113556465918506  0.4587928200310999  0.3486913977737583  1.0000
  O   O11       1.0  0.7113556473681053  0.04120718000492695  0.8486913976939474  1.0000
  O   O12       1.0  0.28864435360814666  0.5412071800409537  0.6513086019393025  1.0000
