data_image0
_chemical_formula_structural       H60B4C72N8O12
_chemical_formula_sum              "H60 B4 C72 N8 O12"
_cell_length_a       8.281273005063655
_cell_length_b       22.943989682254436
_cell_length_c       8.82267698059393
_cell_angle_alpha    90.0
_cell_angle_beta     114.953903351932
_cell_angle_gamma    90.0

_space_group_name_H-M_alt    "P 1"
_space_group_IT_number       1

loop_
  _space_group_symop_operation_xyz
  'x, y, z'

loop_
  _atom_site_type_symbol
  _atom_site_label
  _atom_site_symmetry_multiplicity
  _atom_site_fract_x
  _atom_site_fract_y
  _atom_site_fract_z
  _atom_site_occupancy
  H   H1        1.0  0.6284634914805947  0.10341404319211059  0.2678563220147603  1.0000
  H   H2        1.0  0.8715365083313289  0.6034140431429814  0.23214367789025195  1.0000
  H   H3        1.0  0.371536507961778  0.8965859571454751  0.7321436778606065  1.0000
  H   H4        1.0  0.12846349231537413  0.39658595675876024  0.7678563219780089  1.0000
  H   H5        1.0  0.4561279891724777  0.15616118031865955  0.39010606552278826  1.0000
  H   H6        1.0  0.04387201203741862  0.6561611802695304  0.10989393503285276  1.0000
  H   H7        1.0  0.5438720114742253  0.843838819583082  0.6098939343454726  1.0000
  H   H8        1.0  0.9561279891780436  0.3438388196322113  0.8901060660855351  1.0000
  H   H9        1.0  0.07498285404683108  0.21908232829653593  0.5205733099988372  1.0000
  H   H10       1.0  0.4250171455947498  0.7190823282474068  0.9794266910970111  1.0000
  H   H11       1.0  0.9250171453955415  0.7809176720410497  0.4794266898765296  1.0000
  H   H12       1.0  0.574982854416382  0.28091767209017887  0.020573310028482613  1.0000
  H   H13       1.0  0.900726972345463  0.27129628265193584  0.6462150780627538  1.0000
  H   H14       1.0  0.5992730271024755  0.7712962826028067  0.8537849223753599  1.0000
  H   H15       1.0  0.09927302766566878  0.7287037172498058  0.35378492306273984  1.0000
  H   H16       1.0  0.4007269723398971  0.228703717298935  0.14621507750000698  1.0000
  H   H17       1.0  0.891853328846068  0.10235863389602251  0.2217027906682023  1.0000
  H   H18       1.0  0.6081466709658555  0.6023586338468934  0.2782972092368099  1.0000
  H   H19       1.0  0.10814667180063492  0.8976413664415631  0.7782972092000586  1.0000
  H   H20       1.0  0.39185332847651716  0.3976413664906923  0.7217027906385569  1.0000
  H   H21       1.0  0.5751940236703985  0.3191476212902699  0.7634850519252792  1.0000
  H   H22       1.0  0.9248059769818704  0.8191476212411408  0.7365149485057287  1.0000
  H   H23       1.0  0.42480597577197404  0.6808523786114717  0.23651494795008768  1.0000
  H   H24       1.0  0.07519402366483266  0.18085237866060092  0.2634850513625322  1.0000
  H   H25       1.0  0.3054849302771947  0.24016142293952475  0.421629251184783  1.0000
  H   H26       1.0  0.19451506915961198  0.7401614228903955  0.07837074812783686  1.0000
  H   H27       1.0  0.6945150691651779  0.7598385773980609  0.5783707486905838  1.0000
  H   H28       1.0  0.8054849302827606  0.2598385770113461  0.9216292517475299  1.0000
  H   H29       1.0  0.08700546437930554  0.022282375780329666  0.3320127856809287  1.0000
  H   H30       1.0  0.4129945350575011  0.5222823761670444  0.1679872136316912  1.0000
  H   H31       1.0  0.912994535063067  0.977717624121412  0.6679872141944381  1.0000
  H   H32       1.0  0.5870054643848714  0.47771762417054114  0.8320127862436757  1.0000
  H   H33       1.0  0.6485388574903228  0.16153709800813615  0.006925575513155633  1.0000
  H   H34       1.0  0.8514611423216008  0.6615370979590071  0.4930744243918565  1.0000
  H   H35       1.0  0.3514611431563803  0.8384629018936056  0.9930744243551053  1.0000
  H   H36       1.0  0.14853885768953107  0.33846290194273465  0.5069255767336373  1.0000
  H   H37       1.0  0.2059979146424754  0.9207474455211763  0.36916696505576546  1.0000
  H   H38       1.0  0.29400208536309047  0.4207474455703055  0.1308330355069814  1.0000
  H   H39       1.0  0.7940020860042275  0.07925255438056535  0.6308330348124954  1.0000
  H   H40       1.0  0.7059979140792823  0.5792525543314362  0.8691669643683854  1.0000
  H   H41       1.0  0.3696809442511161  0.18403897397434218  0.7578151603054125  1.0000
  H   H42       1.0  0.13031905602603613  0.6840389739252131  0.7421848395332031  1.0000
  H   H43       1.0  0.630319056395587  0.8159610263632434  0.24218483956284853  1.0000
  H   H44       1.0  0.8696809434163365  0.31596102641237267  0.2578151603421637  1.0000
  H   H45       1.0  0.046326758363424654  0.8440419111144387  0.16330945702289482  1.0000
  H   H46       1.0  0.45367324164214123  0.3440419111635679  0.33669054353985206  1.0000
  H   H47       1.0  0.9536732416477072  0.15595808878730294  0.8366905441025989  1.0000
  H   H48       1.0  0.5463267590045617  0.6559580887381737  0.6633094563284088  1.0000
  H   H49       1.0  0.7632174611273144  0.866641490227789  0.9156410848433281  1.0000
  H   H50       1.0  0.7367825383206241  0.3666414902769181  0.5843589155947856  1.0000
  H   H51       1.0  0.23678253831505824  0.1333585096739527  0.0843589150320387  1.0000
  H   H52       1.0  0.26321746112174843  0.6333585096248235  0.41564108428058116  1.0000
  H   H53       1.0  0.2109989078172328  0.10671612539530287  0.5496599219437948  1.0000
  H   H54       1.0  0.28900109245991934  0.6067161253461737  0.9503400778948208  1.0000
  H   H55       1.0  0.7890010916251398  0.8932838745064388  0.450340077931572  1.0000
  H   H56       1.0  0.7109989081867836  0.39328387455556796  0.04965992197344023  1.0000
  H   H57       1.0  0.32710995588632363  0.004893156401950085  0.5932063296180843  1.0000
  H   H58       1.0  0.17289004318649798  0.504893156352821  0.906793670227637  1.0000
  H   H59       1.0  0.6728900435560489  0.9951068439356356  0.40679367025728247  1.0000
  H   H60       1.0  0.8271099562558746  0.4951068435489207  0.09320632964772978  1.0000
  B   B1        1.0  0.554162581455481  0.2562667723193581  0.5980616702731447  1.0000
  B   B2        1.0  0.9458374186280286  0.756266772270229  0.9019383289077362  1.0000
  B   B3        1.0  0.44583741919122194  0.7437332275823835  0.4019383295951162  1.0000
  B   B4        1.0  0.054162582018674424  0.24373322763151273  0.09806167096052487  1.0000
  C   C1        1.0  0.5915487632145262  0.17076029122477496  0.4196692905200711  1.0000
  C   C2        1.0  0.9084512365973972  0.6707602911756457  0.08033070938494109  1.0000
  C   C3        1.0  0.4084512362278463  0.8292397086769666  0.5803307093552956  1.0000
  C   C4        1.0  0.09154876404930583  0.32923970872609587  0.9196692904833199  1.0000
  C   C5        1.0  0.8632941397508644  0.15855806467755265  0.3847077811177306  1.0000
  C   C6        1.0  0.6367058606298182  0.6585580646284235  0.11529222003740862  1.0000
  C   C7        1.0  0.13670586026026724  0.8414419352241891  0.6152922200077632  1.0000
  C   C8        1.0  0.3632941393813136  0.3414419352733182  0.8847077810880852  1.0000
  C   C9        1.0  0.6629912981503554  0.21874767202679665  0.5266366698225421  1.0000
  C   C10       1.0  0.8370087012975831  0.7187476724135116  0.9733633306155716  1.0000
  C   C11       1.0  0.33700870129201715  0.781252327874945  0.47336333005282466  1.0000
  C   C12       1.0  0.16299129814478955  0.2812523279240742  0.026636669259795253  1.0000
  C   C13       1.0  0.6888543236680447  0.14060441556487904  0.34905579649534646  1.0000
  C   C14       1.0  0.8111456761438788  0.6406044155157499  0.15094420340966574  1.0000
  C   C15       1.0  0.3111456757743279  0.8593955843368627  0.6509442033800202  1.0000
  C   C16       1.0  0.18885432450282408  0.3593955843859918  0.8490557964585951  1.0000
  C   C17       1.0  0.9391251388990165  0.20558269051385514  0.49297107761462317  1.0000
  C   C18       1.0  0.5608748609129071  0.70558269090057  0.007028922290389019  1.0000
  C   C19       1.0  0.06087486054335614  0.7944173093878866  0.5070289222607436  1.0000
  C   C20       1.0  0.439125139733796  0.29441730943701566  0.992971077577872  1.0000
  C   C21       1.0  0.8395519508380993  0.23479071445741162  0.5624254985049116  1.0000
  C   C22       1.0  0.6604480498141695  0.7347907144082825  0.9375745019260961  1.0000
  C   C23       1.0  0.16044804980860367  0.7652092854443301  0.4375745013633493  1.0000
  C   C24       1.0  0.339551949628203  0.26520928549345923  0.06242549794927061  1.0000
  C   C25       1.0  0.6445801851537479  0.06984718927238176  0.9450034033872787  1.0000
  C   C26       1.0  0.855419815498521  0.5698471892232526  0.5549965970437292  1.0000
  C   C27       1.0  0.3554198148573839  0.93015281062936  0.05499659773821509  1.0000
  C   C28       1.0  0.144580185148182  0.43015281067848904  0.4450034028245318  1.0000
  C   C29       1.0  0.76298783453204  0.9573815288536882  0.9820403654476508  1.0000
  C   C30       1.0  0.7370121649158985  0.4573815289028173  0.5179596349904628  1.0000
  C   C31       1.0  0.2370121649103326  0.042618471048053545  0.017959634427715997  1.0000
  C   C32       1.0  0.2629878345264741  0.5426184709989244  0.4820403648849039  1.0000
  C   C33       1.0  0.8572269530704916  0.00217380458633031  0.10237288540089648  1.0000
  C   C34       1.0  0.6427730479457624  0.5021738045372012  0.3976271144970099  1.0000
  C   C35       1.0  0.1427730475762114  0.9978261953154114  0.8976271144673644  1.0000
  C   C36       1.0  0.3572269527009407  0.49782619536454054  0.6023728853712511  1.0000
  C   C37       1.0  0.5520556850220554  0.024536134639016487  0.8256845558596443  1.0000
  C   C38       1.0  0.9479443144258831  0.5245361345898873  0.6743154445784694  1.0000
  C   C39       1.0  0.4479443144203172  0.9754638652627252  0.17431544401572252  1.0000
  C   C40       1.0  0.0520556850164895  0.47546386531185436  0.3256845552968974  1.0000
  C   C41       1.0  0.01783800620990006  0.9878971823950388  0.2430768719689732  1.0000
  C   C42       1.0  0.4821619937956659  0.4878971824441679  0.25692312859377364  1.0000
  C   C43       1.0  0.9821619950055621  0.012102817506702912  0.7569231291494146  1.0000
  C   C44       1.0  0.5178380056467068  0.5121028174575737  0.743076871281593  1.0000
  C   C45       1.0  0.5761598250764853  0.12763335542575344  0.9176985774382648  1.0000
  C   C46       1.0  0.9238401755757837  0.6276333558124683  0.5823014229927431  1.0000
  C   C47       1.0  0.42384017436588717  0.8723666444759882  0.08230142243710196  1.0000
  C   C48       1.0  0.0761598256396787  0.3723666445251174  0.4176985781256449  1.0000
  C   C49       1.0  0.8340724020705368  0.8998986142313866  0.00777291527042647  1.0000
  C   C50       1.0  0.6659275989457172  0.39989861384467174  0.4922270846274799  1.0000
  C   C51       1.0  0.16592759857616618  0.10010138610619912  0.9922270845978344  1.0000
  C   C52       1.0  0.33407240170098584  0.6001013860570699  0.5077729152407809  1.0000
  C   C53       1.0  0.08248997119330283  0.9319861042536389  0.26240470142066524  1.0000
  C   C54       1.0  0.41751002824350386  0.43198610430276807  0.2375952978919547  1.0000
  C   C55       1.0  0.9175100282490698  0.06801389564810277  0.7375952984547016  1.0000
  C   C56       1.0  0.5824899711988688  0.5680138955989736  0.7624047019834121  1.0000
  C   C57       1.0  0.9900296903953427  0.8877359474997225  0.14412432452613405  1.0000
  C   C58       1.0  0.5099703094165807  0.38773594754885166  0.35587567537887815  1.0000
  C   C59       1.0  0.009970309047029896  0.1122640524020192  0.8558756753492328  1.0000
  C   C60       1.0  0.4900296912301223  0.61226405235289  0.6441243244893828  1.0000
  C   C61       1.0  0.33162238154517126  0.09555147689486691  0.659646005988343  1.0000
  C   C62       1.0  0.16837761752765043  0.5955514768457377  0.8403539938573783  1.0000
  C   C63       1.0  0.6683776178972014  0.9044485230068747  0.3403539938870238  1.0000
  C   C64       1.0  0.8316223819147222  0.4044485230560039  0.15964600601798842  1.0000
  C   C65       1.0  0.4225880621995012  0.13980544423278424  0.7783877744420489  1.0000
  C   C66       1.0  0.07741193807765095  0.639805444183655  0.7216122253965667  1.0000
  C   C67       1.0  0.5774119372428714  0.8601945556689574  0.22161222543331785  1.0000
  C   C68       1.0  0.9225880625690521  0.3601945557180866  0.2783877744716943  1.0000
  C   C69       1.0  0.39443991960267416  0.0393666939581386  0.682456417787781  1.0000
  C   C70       1.0  0.1055600806744779  0.5393666939090095  0.8175435820508344  1.0000
  C   C71       1.0  0.6055600810440289  0.9606333059436031  0.31754358208047995  1.0000
  C   C72       1.0  0.8944399187678946  0.4606333059927322  0.18245641782453229  1.0000
  N   N1        1.0  0.7945118949876234  0.057068775663402495  0.08118843085697039  1.0000
  N   N2        1.0  0.7054881048243001  0.5570687756142734  0.4188115690480418  1.0000
  N   N3        1.0  0.20548810565907966  0.9429312242383392  0.9188115690112906  1.0000
  N   N4        1.0  0.2945118946180724  0.4429312242874684  0.581188430827325  1.0000
  N   N5        1.0  0.6115083060769427  0.9692463990776558  0.8469255331077647  1.0000
  N   N6        1.0  0.8884916928022366  0.4692463991267849  0.6530744660802219  1.0000
  N   N7        1.0  0.38849169336542994  0.03075360082408597  0.153074466767602  1.0000
  N   N8        1.0  0.11150830664013599  0.5307536007749568  0.34692553379514485  1.0000
  O   O1        1.0  0.9651915910956625  0.13139245753460363  0.3180275314355816  1.0000
  O   O2        1.0  0.534808408716261  0.6313924574854745  0.1819724684694306  1.0000
  O   O3        1.0  0.03480840955104056  0.8686075423671381  0.6819724684326793  1.0000
  O   O4        1.0  0.46519159072611155  0.3686075424162672  0.8180275314059361  1.0000
  O   O5        1.0  0.6500095597135866  0.29001941955834115  0.7375416266253996  1.0000
  O   O6        1.0  0.8499904397343518  0.790019419509212  0.7624583738127141  1.0000
  O   O7        1.0  0.3499904397287859  0.7099805803434005  0.2624583732499672  1.0000
  O   O8        1.0  0.15000955970802074  0.2099805803925297  0.23754162606265267  1.0000
  O   O9        1.0  0.3720832092015945  0.26044297494701657  0.5296765952497362  1.0000
  O   O10       1.0  0.12791679107555776  0.7604429748978874  0.9703234045888794  1.0000
  O   O11       1.0  0.6279167902407782  0.7395570249547251  0.47032340462563066  1.0000
  O   O12       1.0  0.8720832095711454  0.23955702500385423  0.029676595279381542  1.0000
