data_image0
_chemical_formula_structural       H36B2C36N4O8
_chemical_formula_sum              "H36 B2 C36 N4 O8"
_cell_length_a       8.916109033168373
_cell_length_b       8.821923713201013
_cell_length_c       11.468180604284939
_cell_angle_alpha    90.29768953441868
_cell_angle_beta     106.0984720231341
_cell_angle_gamma    111.69443713303417

_space_group_name_H-M_alt    "P 1"
_space_group_IT_number       1

loop_
  _space_group_symop_operation_xyz
  'x, y, z'

loop_
  _atom_site_type_symbol
  _atom_site_label
  _atom_site_symmetry_multiplicity
  _atom_site_fract_x
  _atom_site_fract_y
  _atom_site_fract_z
  _atom_site_occupancy
  H   H1        1.0  0.36447757614737875  0.6840874459548456  0.4758779530864697  1.0000
  H   H2        1.0  0.63552242466636  0.31591255393071666  0.5241220469096587  1.0000
  H   H3        1.0  0.8665626774017221  0.968470657084496  0.6952600706543187  1.0000
  H   H4        1.0  0.13343732229033772  0.031529342812083194  0.3047399293297423  1.0000
  H   H5        1.0  0.12372066494877508  0.9999268332350129  0.072638007241166  1.0000
  H   H6        1.0  0.8762793358649636  7.316665054938403e-05  0.9273619927549624  1.0000
  H   H7        1.0  0.9798488547320019  0.8029535625899693  0.641316313180487  1.0000
  H   H8        1.0  0.020151144960057828  0.19704643730660984  0.358683686803574  1.0000
  H   H9        1.0  0.14707624511477838  0.7514050832347605  0.5178437678320509  1.0000
  H   H10       1.0  0.8529237545772814  0.24859491666181857  0.48215623215201003  1.0000
  H   H11       1.0  0.5658307236405498  0.8373066632698736  0.8481723800479415  1.0000
  H   H12       1.0  0.43416927605151007  0.16269333662670557  0.15182761993611957  1.0000
  H   H13       1.0  0.3912949372598702  0.88583756341818  0.9696893153296483  1.0000
  H   H14       1.0  0.6087050635538683  0.11416243646738225  0.03031068466648002  1.0000
  H   H15       1.0  0.20687766354864912  0.09448328970246815  0.4466508797234272  1.0000
  H   H16       1.0  0.7931223361434108  0.9055167101941111  0.5533491202606339  1.0000
  H   H17       1.0  0.39646773436039845  0.18505080176868507  0.885327702812864  1.0000
  H   H18       1.0  0.6035322653316615  0.8149491981278941  0.11467229717119712  1.0000
  H   H19       1.0  0.3800859382431455  0.11550982213312977  0.6705329365130163  1.0000
  H   H20       1.0  0.6199140619068482  0.8844901789832624  0.3294670634706241  1.0000
  H   H21       1.0  0.12425264256288375  0.41756234527661085  0.5438715492453136  1.0000
  H   H22       1.0  0.8757473571291761  0.5824376546199683  0.45612845073874747  1.0000
  H   H23       1.0  0.11704447652529079  0.4892387866360669  0.7498945148326439  1.0000
  H   H24       1.0  0.882955523166769  0.5107612132605122  0.250105485151417  1.0000
  H   H25       1.0  0.32687467467409603  0.31459216115323607  0.02866233033844948  1.0000
  H   H26       1.0  0.6731253261396425  0.6854078387323261  0.9713376696576789  1.0000
  H   H27       1.0  0.16223016370479187  0.5625231900212816  0.9437308537008561  1.0000
  H   H28       1.0  0.8377698359872677  0.4374768098752974  0.056269146283204806  1.0000
  H   H29       1.0  0.29770545795722364  0.32182392528562304  0.2049051704685577  1.0000
  H   H30       1.0  0.7022945417348361  0.678176074610956  0.7950948295155031  1.0000
  H   H31       1.0  0.36832693427288365  0.42694612513142416  0.42147091257257757  1.0000
  H   H32       1.0  0.6316730654191761  0.5730538747651549  0.5785290874114835  1.0000
  H   H33       1.0  0.2599700636924489  0.8397547171398823  0.33109534590467565  1.0000
  H   H34       1.0  0.7400299359996109  0.1602452827566968  0.6689046540793853  1.0000
  H   H35       1.0  0.1900072561083182  0.7557980657988458  0.10630962915225173  1.0000
  H   H36       1.0  0.8099927447054205  0.24420193408671667  0.8936903708438766  1.0000
  B   B1        1.0  0.08236971360696099  0.9123088773232378  0.8937534013597359  1.0000
  B   B2        1.0  0.9176302860850988  0.08769112257334129  0.10624659862432506  1.0000
  C   C1        1.0  0.17345815003905132  0.8466685907705145  0.8149588043703553  1.0000
  C   C2        1.0  0.8265418496530084  0.15333140912606463  0.18504119561370574  1.0000
  C   C3        1.0  0.10507210062707546  0.8037516779596099  0.6863255444221968  1.0000
  C   C4        1.0  0.8949278995229183  0.19624832315678248  0.31367445556144363  1.0000
  C   C5        1.0  0.1968506135792783  0.7730976960691414  0.6171851423312458  1.0000
  C   C6        1.0  0.8031493861127814  0.22690230382743778  0.38281485765281525  1.0000
  C   C7        1.0  0.365639946819728  0.7792030844459745  0.6742412287627462  1.0000
  C   C8        1.0  0.6343600528723318  0.22079691545060456  0.3257587712213148  1.0000
  C   C9        1.0  0.43510158212496763  0.8226975977165082  0.8049628404633435  1.0000
  C   C10       1.0  0.5648984175670922  0.17730240218007087  0.19503715952071743  1.0000
  C   C11       1.0  0.33935862043579657  0.8520545134171545  0.8710159252285995  1.0000
  C   C12       1.0  0.6606413792562632  0.14794548647942452  0.1289840747554615  1.0000
  C   C13       1.0  0.33291755625124864  0.23767377540591722  0.8116696859885164  1.0000
  C   C14       1.0  0.6670824445624899  0.762326224479645  0.1883303140076119  1.0000
  C   C15       1.0  0.32531178513088616  0.2003000139315281  0.6916405867975907  1.0000
  C   C16       1.0  0.6746882156828525  0.7996999859540342  0.30835941319853777  1.0000
  C   C17       1.0  0.18149443416570563  0.3654160927144197  0.6214719051928252  1.0000
  C   C18       1.0  0.818505566648033  0.6345839071711427  0.378528094803303  1.0000
  C   C19       1.0  0.17863216433024515  0.40690876830967626  0.7376687310098234  1.0000
  C   C20       1.0  0.8213678353618147  0.5930912315869029  0.26233126897423764  1.0000
  C   C21       1.0  0.2573440900866084  0.3427874347731537  0.8375150288549585  1.0000
  C   C22       1.0  0.7426559096054515  0.6572125651234253  0.16248497112910254  1.0000
  C   C23       1.0  0.2674888334735043  0.3807606231426681  0.9636252118471542  1.0000
  C   C24       1.0  0.7325111666764895  0.6192393779737242  0.03637478813648617  1.0000
  C   C25       1.0  0.21727465980090907  0.4912275408155851  0.006392059609799484  1.0000
  C   C26       1.0  0.7827253410128295  0.5087724590699773  0.9936079403863289  1.0000
  C   C27       1.0  0.24408513795729173  0.5335171648317679  0.1352547704336216  1.0000
  C   C28       1.0  0.7559148617347681  0.4664828350648112  0.8647452295504394  1.0000
  C   C29       1.0  0.2926702390046036  0.43945662735648117  0.22652327649371878  1.0000
  C   C30       1.0  0.7073297618091351  0.5605433725290812  0.7734767235024095  1.0000
  C   C31       1.0  0.33006620492784905  0.49477410447623915  0.34772254216263254  1.0000
  C   C32       1.0  0.6699337947642109  0.50522589542034  0.6522774578214284  1.0000
  C   C33       1.0  0.2674127833687925  0.7278215335760169  0.2957352176750164  1.0000
  C   C34       1.0  0.7325872163232673  0.2721784663205622  0.7042647823090447  1.0000
  C   C35       1.0  0.22722619211523407  0.6776003273172125  0.17252653141322286  1.0000
  C   C36       1.0  0.7727738075768257  0.3223996725793666  0.8274734685708381  1.0000
  N   N1        1.0  0.31945685427442405  0.6370455894815937  0.3799057713122607  1.0000
  N   N2        1.0  0.6805431454176358  0.3629544104149854  0.6200942286718002  1.0000
  N   N3        1.0  0.25245925893742055  0.26340123879251576  0.596477091813751  1.0000
  N   N4        1.0  0.7475407407546393  0.7365987611040634  0.40352290817031  1.0000
  O   O1        1.0  0.45165689209608795  0.7460469792727858  0.6126228870000102  1.0000
  O   O2        1.0  0.5483431087176508  0.2539530206127765  0.3873771129961181  1.0000
  O   O3        1.0  0.9370119775782032  0.9303092303678843  0.8402647280885703  1.0000
  O   O4        1.0  0.0629880221138565  0.06969076952869495  0.15973527189549058  1.0000
  O   O5        1.0  0.17475673463286212  0.9532534262098445  0.016427254012732765  1.0000
  O   O6        1.0  0.8252432650591975  0.04674657368673448  0.9835727459713282  1.0000
  O   O7        1.0  0.17232184835718314  0.9980290285843542  0.38768854357826105  1.0000
  O   O8        1.0  0.8276781513348767  0.001970971312224966  0.6123114564057999  1.0000
