data_image0
_chemical_formula_structural       H20C24N2O8Cl2
_chemical_formula_sum              "H20 C24 N2 O8 Cl2"
_cell_length_a       5.239946073526923
_cell_length_b       10.857490543902419
_cell_length_c       11.178967234332704
_cell_angle_alpha    106.65785002807473
_cell_angle_beta     101.13482656494116
_cell_angle_gamma    103.36297675684848

_space_group_name_H-M_alt    "P 1"
_space_group_IT_number       1

loop_
  _space_group_symop_operation_xyz
  'x, y, z'

loop_
  _atom_site_type_symbol
  _atom_site_label
  _atom_site_symmetry_multiplicity
  _atom_site_fract_x
  _atom_site_fract_y
  _atom_site_fract_z
  _atom_site_occupancy
  H   H1        1.0  0.8795084057355765  0.6267059973215227  0.3510384298344228  1.0000
  H   H2        1.0  0.12049159391957658  0.37329400265894347  0.6489615703448995  1.0000
  H   H3        1.0  0.3168236897654562  0.5604905245940964  0.06427466611063462  1.0000
  H   H4        1.0  0.683176309889697  0.43950947538636975  0.9357253340686877  1.0000
  H   H5        1.0  0.1639393208216786  0.5029796622183876  0.17520832907200148  1.0000
  H   H6        1.0  0.8360606788334746  0.49702033776207866  0.8247916711073209  1.0000
  H   H7        1.0  0.037733879600294104  0.3673708577271528  0.28226269030335926  1.0000
  H   H8        1.0  0.9622661194566583  0.6326291418956903  0.7177373089039696  1.0000
  H   H9        1.0  0.5908306892089911  0.20211237942614085  0.14918551921988302  1.0000
  H   H10       1.0  0.40916931044616206  0.7978876205543253  0.8508144809594393  1.0000
  H   H11       1.0  0.8591108478849138  0.8543580827313589  0.3149673048100314  1.0000
  H   H12       1.0  0.14088915177023942  0.14564191724910736  0.6850326953692909  1.0000
  H   H13       1.0  0.5081371771612266  0.41514447142045674  0.43075368752053983  1.0000
  H   H14       1.0  0.49186282249392665  0.5848555285600096  0.5692463126587826  1.0000
  H   H15       1.0  0.2917667169578881  0.021618578796240764  0.4351155251693076  1.0000
  H   H16       1.0  0.7082332845993122  0.9783814211829666  0.5648844749964996  1.0000
  H   H17       1.0  0.26404616755648835  0.9693373987221198  0.08089261636793409  1.0000
  H   H18       1.0  0.7359538320986648  0.03066260125834645  0.9191073838113882  1.0000
  H   H19       1.0  0.3977817261503357  0.7991186787457504  0.1647173194325588  1.0000
  H   H20       1.0  0.6022182735048176  0.20088132123471591  0.8352826807467636  1.0000
  C   C1        1.0  0.5857827868876212  0.5039231589558845  0.19470256792903912  1.0000
  C   C2        1.0  0.41421721276753176  0.4960768410245816  0.805297432250283  1.0000
  C   C3        1.0  0.3025450993120782  0.4867919021242964  0.11444351062999782  1.0000
  C   C4        1.0  0.6974549016469211  0.5132080974972876  0.885556488563816  1.0000
  C   C5        1.0  0.41675528086246294  0.21748745989577745  0.4419379938957252  1.0000
  C   C6        1.0  0.5832447187926901  0.7825125400846888  0.558062006283597  1.0000
  C   C7        1.0  0.9808356754974297  0.06004000974827342  0.3182382281422721  1.0000
  C   C8        1.0  0.01916432415772334  0.9399599902321927  0.6817617720370502  1.0000
  C   C9        1.0  0.9072226947688865  0.16021520199351208  0.27173490188507343  1.0000
  C   C10       1.0  0.09277730678831388  0.8397847979856952  0.7282650982807338  1.0000
  C   C11       1.0  0.6894655273776067  0.2400003511648225  0.5343201464424685  1.0000
  C   C12       1.0  0.31053447227754644  0.7599996488156436  0.4656798537368538  1.0000
  C   C13       1.0  0.7971802314516804  0.9292173201820353  0.27915767214853  1.0000
  C   C14       1.0  0.2028197682034728  0.0707826797984311  0.7208423280307923  1.0000
  C   C15       1.0  0.6446622160449983  0.1253657293606561  0.18489531382772398  1.0000
  C   C16       1.0  0.35533778361015506  0.8746342706198103  0.8151046863515984  1.0000
  C   C17       1.0  0.35282293995141073  0.31779426190629256  0.3974575833526789  1.0000
  C   C18       1.0  0.6471770591055415  0.6822057377165505  0.6025424158546498  1.0000
  C   C19       1.0  0.09849391628957788  0.29025450329344155  0.31473799289630844  1.0000
  C   C20       1.0  0.9015060833655751  0.7097454966870247  0.6852620072830139  1.0000
  C   C21       1.0  0.5428099105623485  0.8994298689985727  0.19514106136780526  1.0000
  C   C22       1.0  0.45719009039665104  0.1005701306230115  0.8048589378260085  1.0000
  C   C23       1.0  0.46629696394121456  0.9970284155952155  0.14770543781490425  1.0000
  C   C24       1.0  0.5337030357139386  0.002971584385250773  0.8522945623644181  1.0000
  N   N1        1.0  0.23456918717656938  0.09525290727679067  0.4028764504999336  1.0000
  N   N2        1.0  0.765430814380631  0.9047470927024167  0.5971235496658737  1.0000
  O   O1        1.0  0.6764151288804486  0.6155990485850037  0.2975747063717763  1.0000
  O   O2        1.0  0.3235848707747046  0.3844009513954626  0.702425293807546  1.0000
  O   O3        1.0  0.713867181945237  0.42328477835622325  0.16488947027526343  1.0000
  O   O4        1.0  0.28613281961196313  0.5767152216229839  0.8351105298905437  1.0000
  O   O5        1.0  0.7291888771311676  0.14158277428963173  0.5641368294919745  1.0000
  O   O6        1.0  0.2708111225239854  0.8584172256908345  0.43586317068734765  1.0000
  O   O7        1.0  0.8555532944933443  0.3584871992658636  0.57171722066455  1.0000
  O   O8        1.0  0.14444670516180882  0.6415128007146026  0.4282827795147723  1.0000
  Cl  Cl1       1.0  0.1543851889606494  0.32313773703517534  0.9935810612412145  1.0000
  Cl  Cl2       1.0  0.8456148106945037  0.6768622629452908  0.0064189389381077815  1.0000
