data_image0
_chemical_formula_structural       H40C24N64O8
_chemical_formula_sum              "H40 C24 N64 O8"
_cell_length_a       21.521323081728283
_cell_length_b       3.705608142630936
_cell_length_c       19.50789327865963
_cell_angle_alpha    90.0
_cell_angle_beta     123.37767666374742
_cell_angle_gamma    90.0

_space_group_name_H-M_alt    "P 1"
_space_group_IT_number       1

loop_
  _space_group_symop_operation_xyz
  'x, y, z'

loop_
  _atom_site_type_symbol
  _atom_site_label
  _atom_site_symmetry_multiplicity
  _atom_site_fract_x
  _atom_site_fract_y
  _atom_site_fract_z
  _atom_site_occupancy
  H   H1        1.0  0.6507876995093865  0.9115494677215846  0.4409482560537628  1.0000
  H   H2        1.0  0.34921230040184786  0.9115494677215846  0.059051744243737325  1.0000
  H   H3        1.0  0.1507876996663074  0.41154946537796616  0.4409482559810767  1.0000
  H   H4        1.0  0.8492123007974203  0.41154946537796616  0.059051744135536315  1.0000
  H   H5        1.0  0.3492123006269239  0.08845053426703997  0.5590517443958654  1.0000
  H   H6        1.0  0.6507876991780444  0.08845053426703997  0.9409482558717955  1.0000
  H   H7        1.0  0.8492123004660781  0.588450533912046  0.5590517439535689  1.0000
  H   H8        1.0  0.15078769933496516  0.588450533912046  0.9409482557991095  1.0000
  H   H9        1.0  0.3310083173483363  0.7783829371532317  0.4144210634859666  1.0000
  H   H10       1.0  0.6689916825589731  0.7783829371532317  0.08557893629655118  1.0000
  H   H11       1.0  0.8310083171914154  0.2783829375082256  0.41442106355865277  1.0000
  H   H12       1.0  0.16899168271981893  0.2783829375082256  0.08557893673884746  1.0000
  H   H13       1.0  0.6689916827840492  0.22161706213678048  0.585578936448679  1.0000
  H   H14       1.0  0.33100831757341237  0.22161706213678048  0.9144210636380945  1.0000
  H   H15       1.0  0.16899168238847673  0.7216170617817866  0.5855789365568801  1.0000
  H   H16       1.0  0.8310083174164915  0.7216170617817866  0.9144210637107806  1.0000
  H   H17       1.0  0.34055629771522117  0.4040376025666337  0.3738594313070585  1.0000
  H   H18       1.0  0.6594437027485065  0.4040376025666337  0.12614056880955446  1.0000
  H   H19       1.0  0.8405562975583003  0.9040376049102521  0.37385943137974464  1.0000
  H   H20       1.0  0.15944370234900912  0.9040376049102521  0.12614056840277307  1.0000
  H   H21       1.0  0.6594437024171643  0.5959623967233785  0.6261405686275872  1.0000
  H   H22       1.0  0.34055629738387894  0.5959623967233785  0.8738594311250912  1.0000
  H   H23       1.0  0.15944370257408516  0.09596239707837241  0.6261405685549011  1.0000
  H   H24       1.0  0.8405562972269581  0.09596239707837241  0.8738594311977773  1.0000
  H   H25       1.0  0.08235913526006772  0.11566964544062139  0.29616279374801746  1.0000
  H   H26       1.0  0.9176408646472417  0.11566964544062139  0.20383720603450028  1.0000
  H   H27       1.0  0.5823591351031469  0.6156696450856276  0.2961627938207036  1.0000
  H   H28       1.0  0.41764086480416257  0.6156696450856276  0.20383720596181415  1.0000
  H   H29       1.0  0.9176408648723179  0.8843303565480032  0.7038372061866282  1.0000
  H   H30       1.0  0.08235913548514377  0.8843303565480032  0.7961627939001453  1.0000
  H   H31       1.0  0.41764086502923864  0.3843303542043847  0.7038372061139421  1.0000
  H   H32       1.0  0.5823591353282229  0.3843303542043847  0.7961627939728315  1.0000
  H   H33       1.0  0.17915630245496858  0.24074299161233506  0.24180994617342208  1.0000
  H   H34       1.0  0.8208436974523409  0.24074299161233506  0.25819005360909564  1.0000
  H   H35       1.0  0.679156302854466  0.7407429912573412  0.2418099465802035  1.0000
  H   H36       1.0  0.3208436970567684  0.7407429912573412  0.2581900537172967  1.0000
  H   H37       1.0  0.8208436971209987  0.7592570076776772  0.7581900534271283  1.0000
  H   H38       1.0  0.17915630268004462  0.7592570076776772  0.74180994632555  1.0000
  H   H39       1.0  0.3208436972818444  0.25925700803267104  0.7581900538694246  1.0000
  H   H40       1.0  0.6791563025231239  0.25925700803267104  0.741809946398236  1.0000
  C   C1        1.0  0.49594260214826347  0.07048487588181916  0.46350207412287875  1.0000
  C   C2        1.0  0.5040573977590461  0.07048487588181916  0.03649792565963898  1.0000
  C   C3        1.0  0.995942602547761  0.5704848755268253  0.46350207452966025  1.0000
  C   C4        1.0  0.004057397919891762  0.5704848755268253  0.03649792610193525  1.0000
  C   C5        1.0  0.5040573974277038  0.9295151261068054  0.5364979254776715  1.0000
  C   C6        1.0  0.4959426023733395  0.9295151261068054  0.9635020742750069  1.0000
  C   C7        1.0  0.004057397584624621  0.42951512376318696  0.5364979254049854  1.0000
  C   C8        1.0  0.9959426022164187  0.42951512376318696  0.9635020743476927  1.0000
  C   C9        1.0  0.1363037566006083  0.24341428053954794  0.3251992492010784  1.0000
  C   C10       1.0  0.8636962433067011  0.24341428053954794  0.17480075058143943  1.0000
  C   C11       1.0  0.6363037570001058  0.7434142801845541  0.3251992496078598  1.0000
  C   C12       1.0  0.36369624290720376  0.7434142801845541  0.174800750174658  1.0000
  C   C13       1.0  0.863696242975359  0.7565857214490767  0.6748007503994721  1.0000
  C   C14       1.0  0.13630375682568432  0.7565857214490767  0.8251992493532061  1.0000
  C   C15       1.0  0.36369624313227983  0.2565857218040705  0.6748007503267858  1.0000
  C   C16       1.0  0.6363037566687635  0.2565857218040705  0.8251992494258923  1.0000
  C   C17       1.0  0.1830874673613559  0.2993939529753714  0.2985337199235476  1.0000
  C   C18       1.0  0.8169125325459536  0.2993939529753714  0.2014662798589701  1.0000
  C   C19       1.0  0.6830874677608534  0.7993939526203775  0.2985337203303291  1.0000
  C   C20       1.0  0.31691253215038107  0.7993939526203775  0.20146627996717117  1.0000
  C   C21       1.0  0.8169125322146115  0.7006060490132532  0.7014662796770028  1.0000
  C   C22       1.0  0.18308746758643196  0.7006060490132532  0.7985337200756755  1.0000
  C   C23       1.0  0.31691253237545713  0.2006060466696347  0.7014662801192991  1.0000
  C   C24       1.0  0.6830874674295111  0.2006060466696347  0.7985337201483617  1.0000
  N   N1        1.0  0.5506165832353763  0.0701479973042819  0.4483495915335018  1.0000
  N   N2        1.0  0.44938341667193316  0.0701479973042819  0.05165040824901594  1.0000
  N   N3        1.0  0.05061658339622209  0.570147996949288  0.44834959197579816  1.0000
  N   N4        1.0  0.9493834165150123  0.570147996949288  0.05165040832170211  1.0000
  N   N5        1.0  0.449383416340591  0.9298520019857303  0.5516504080670487  1.0000
  N   N6        1.0  0.5506165834604524  0.9298520019857303  0.9483495916856297  1.0000
  N   N7        1.0  0.9493834167400883  0.42985200234072424  0.5516504084738301  1.0000
  N   N8        1.0  0.05061658362129814  0.42985200234072424  0.9483495921279259  1.0000
  N   N9        1.0  0.4355134820854315  0.22546383693091168  0.39849694089327875  1.0000
  N   N10       1.0  0.564486517821878  0.22546383693091168  0.10150305888923901  1.0000
  N   N11       1.0  0.9355134824849289  0.7254638365759178  0.39849694130006014  1.0000
  N   N12       1.0  0.06448651742630548  0.7254638365759178  0.10150305899744007  1.0000
  N   N13       1.0  0.5644865174905358  0.7745361623591005  0.6015030587072716  1.0000
  N   N14       1.0  0.4355134823105075  0.7745361623591005  0.8984969410454067  1.0000
  N   N15       1.0  0.06448651765138153  0.2745361627140944  0.601503059149568  1.0000
  N   N16       1.0  0.9355134821535867  0.2745361627140944  0.8984969411180928  1.0000
  N   N17       1.0  0.5239682088674198  0.2272500970386252  0.3745644577104043  1.0000
  N   N18       1.0  0.47603179104381455  0.2272500970386252  0.12543554258709583  1.0000
  N   N19       1.0  0.023968209024340634  0.7272500966836313  0.3745644576377182  1.0000
  N   N20       1.0  0.9760317908829688  0.7272500966836313  0.1254355421447995  1.0000
  N   N21       1.0  0.4760317907124724  0.7727499022513871  0.6254355424051286  1.0000
  N   N22       1.0  0.5239682090885709  0.7727499022513871  0.8745644573475498  1.0000
  N   N23       1.0  0.9760317911080449  0.27274990260638093  0.6254355422969274  1.0000
  N   N24       1.0  0.023968209249416682  0.27274990260638093  0.8745644577898459  1.0000
  N   N25       1.0  0.4546225819292902  0.31752055120556366  0.3457589048388684  1.0000
  N   N26       1.0  0.5453774179819442  0.31752055120556366  0.15424109545863182  1.0000
  N   N27       1.0  0.9546225817684445  0.8175205508505697  0.3457589043965721  1.0000
  N   N28       1.0  0.04537741813886506  0.8175205508505697  0.1542410953859457  1.0000
  N   N29       1.0  0.5453774182070202  0.6824794480844485  0.6542410956107597  1.0000
  N   N30       1.0  0.4546225821543662  0.6824794480844485  0.8457589049909962  1.0000
  N   N31       1.0  0.045377417807522864  0.18247944843944244  0.6542410952039783  1.0000
  N   N32       1.0  0.9546225819935205  0.18247944843944244  0.8457589045487001  1.0000
  N   N33       1.0  0.17122954131914425  0.38927735326483714  0.40118944039676563  1.0000
  N   N34       1.0  0.8287704585920901  0.38927735326483714  0.0988105599007345  1.0000
  N   N35       1.0  0.6712295417147168  0.8892773529098432  0.40118944028856457  1.0000
  N   N36       1.0  0.32877045874901095  0.8892773529098432  0.0988105598280484  1.0000
  N   N37       1.0  0.8287704582607479  0.6107226487237876  0.5988105597187672  1.0000
  N   N38       1.0  0.17122954154422032  0.6107226487237876  0.9011894405488935  1.0000
  N   N39       1.0  0.3287704584176687  0.11072264907878136  0.5988105596460811  1.0000
  N   N40       1.0  0.6712295413833747  0.11072264907878136  0.9011894401065973  1.0000
  N   N41       1.0  0.24310733434646853  0.4724211931262354  0.3621855669748181  1.0000
  N   N42       1.0  0.7568926655608409  0.4724211931262354  0.13781443280769967  1.0000
  N   N43       1.0  0.7431073347459659  0.9724211927712414  0.3621855673815995  1.0000
  N   N44       1.0  0.2568926657177617  0.9724211927712414  0.1378144327350135  1.0000
  N   N45       1.0  0.7568926652294987  0.5275788061637768  0.6378144326257323  1.0000
  N   N46       1.0  0.24310733457154463  0.5275788061637768  0.8621855671269459  1.0000
  N   N47       1.0  0.2568926653864195  0.02757880651877074  0.6378144325530462  1.0000
  N   N48       1.0  0.7431073344146237  0.02757880651877074  0.862185567199632  1.0000
  N   N49       1.0  0.23688229429048754  0.5287771654692071  0.4254371554734446  1.0000
  N   N50       1.0  0.7631177056168219  0.5287771654692071  0.07456284430907317  1.0000
  N   N51       1.0  0.7368822941335668  0.02877716312558864  0.4254371555461307  1.0000
  N   N52       1.0  0.2631177057776677  0.02877716312558864  0.07456284475136948  1.0000
  N   N53       1.0  0.763117705841898  0.4712228365194175  0.574562844461201  1.0000
  N   N54       1.0  0.23688229451556359  0.4712228365194175  0.9254371556255725  1.0000
  N   N55       1.0  0.2631177060027437  0.9712228361644235  0.5745628449034974  1.0000
  N   N56       1.0  0.7368822943586427  0.9712228361644235  0.9254371556982586  1.0000
  N   N57       1.0  0.3033466817566447  0.6103897398050575  0.3632579162251781  1.0000
  N   N58       1.0  0.6966533181506648  0.6103897398050575  0.1367420835573396  1.0000
  N   N59       1.0  0.8033466815997239  0.11038974016005146  0.36325791629786425  1.0000
  N   N60       1.0  0.19665331830758562  0.11038974016005146  0.13674208348465344  1.0000
  N   N61       1.0  0.6966533183757408  0.38961025948495465  0.6367420837094675  1.0000
  N   N62       1.0  0.30334668142530247  0.38961025948495465  0.8632579160432109  1.0000
  N   N63       1.0  0.19665331853266166  0.8896102591299608  0.6367420836367814  1.0000
  N   N64       1.0  0.8033466818247998  0.8896102591299608  0.8632579164499922  1.0000
  O   O1        1.0  0.6184562282310813  0.9411345171332484  0.4940615139490437  1.0000
  O   O2        1.0  0.38154377168015313  0.9411345171332484  0.005938486348456492  1.0000
  O   O3        1.0  0.1184562283880021  0.4411345174882423  0.4940615138763575  1.0000
  O   O4        1.0  0.8815437715193074  0.4411345174882423  0.005938485906160257  1.0000
  O   O5        1.0  0.38154377190522915  0.058865482156763786  0.5059384865005845  1.0000
  O   O6        1.0  0.6184562284561573  0.058865482156763786  0.9940615141011715  1.0000
  O   O7        1.0  0.8815437717443834  0.5588654845003822  0.5059384860582881  1.0000
  O   O8        1.0  0.1184562280566599  0.5588654845003822  0.9940615136943901  1.0000
