data_image0
_chemical_formula_structural       H16C24N2F4I2
_chemical_formula_sum              "H16 C24 N2 F4 I2"
_cell_length_a       6.775854655702072
_cell_length_b       8.94505117231975
_cell_length_c       10.517715563684563
_cell_angle_alpha    66.59741980707652
_cell_angle_beta     74.89327530175323
_cell_angle_gamma    68.98029071311434

_space_group_name_H-M_alt    "P 1"
_space_group_IT_number       1

loop_
  _space_group_symop_operation_xyz
  'x, y, z'

loop_
  _atom_site_type_symbol
  _atom_site_label
  _atom_site_symmetry_multiplicity
  _atom_site_fract_x
  _atom_site_fract_y
  _atom_site_fract_z
  _atom_site_occupancy
  H   H1        1.0  0.33134841654200714  0.05906610700561349  0.07016873244437041  1.0000
  H   H2        1.0  0.6686515822143622  0.9409338933297156  0.9298312678910956  1.0000
  H   H3        1.0  0.11042110645512411  0.8580691217455967  0.17793471063086808  1.0000
  H   H4        1.0  0.8895788923012453  0.14193087858973236  0.8220652897045978  1.0000
  H   H5        1.0  0.4239444205887366  0.6543761816068344  0.5451584793616514  1.0000
  H   H6        1.0  0.5760555796487896  0.3456238187152657  0.4548415209759258  1.0000
  H   H7        1.0  0.6353381742771044  0.8623018194422835  0.4208195982910899  1.0000
  H   H8        1.0  0.36466182596042207  0.13769818087981645  0.5791804020464874  1.0000
  H   H9        1.0  0.26006191535160567  0.4938889731946342  0.2867034343046036  1.0000
  H   H10       1.0  0.7399380841814136  0.5061110263634957  0.7132965649902197  1.0000
  H   H11       1.0  0.19503698665406413  0.25533103111633015  0.28382639398778836  1.0000
  H   H12       1.0  0.8049630138094241  0.74466896962831  0.7161736053038069  1.0000
  H   H13       1.0  0.9298196262083268  0.24213121182410827  0.344290513317112  1.0000
  H   H14       1.0  0.07018037402919933  0.7578687884979919  0.6557094870204652  1.0000
  H   H15       1.0  0.12954171187629038  0.11295981441375785  0.4514459739076664  1.0000
  H   H16       1.0  0.8704582868800788  0.8870401859215713  0.5485540264277995  1.0000
  C   C1        1.0  0.34738759359221105  0.9673436799316161  0.17551355840923352  1.0000
  C   C2        1.0  0.6526124059408082  0.032656319626513663  0.8244864408855898  1.0000
  C   C3        1.0  0.22402918449972092  0.8548257780753317  0.23607394001145973  1.0000
  C   C4        1.0  0.7759708148073362  0.14517422106025846  0.7639260603293454  1.0000
  C   C5        1.0  0.24583319543283338  0.7404163782646229  0.372354435655209  1.0000
  C   C6        1.0  0.7541668038742235  0.2595836208709673  0.6276455646855962  1.0000
  C   C7        1.0  0.39660925937851627  0.7430462596903942  0.44034219726126445  1.0000
  C   C8        1.0  0.6033907410849721  0.2569537410542456  0.5596578020303309  1.0000
  C   C9        1.0  0.514909963794975  0.8586256295542832  0.37140207855980306  1.0000
  C   C10       1.0  0.48509003699323905  0.14137436956807764  0.6285979217831135  1.0000
  C   C11       1.0  0.11757347022481371  0.6184229191289675  0.43992836716604683  1.0000
  C   C12       1.0  0.8824265287575176  0.3815770816289014  0.5600716321234372  1.0000
  C   C13       1.0  0.14298865888282292  0.4969793855234376  0.37989411023836306  1.0000
  C   C14       1.0  0.8570113406501962  0.5030206140346923  0.6201058890564601  1.0000
  C   C15       1.0  0.028944246866342217  0.37668688311646215  0.43783893290831283  1.0000
  C   C16       1.0  0.9710557535971459  0.6233131176281776  0.5621610663832826  1.0000
  C   C17       1.0  0.07265912141554891  0.240900058687977  0.3757743088850948  1.0000
  C   C18       1.0  0.9273408795986272  0.7590999408569238  0.6242256904118398  1.0000
  C   C19       1.0  0.1266598673896367  0.6146992920957264  0.9499976122102758  1.0000
  C   C20       1.0  0.8733401328478898  0.38530070822637336  0.05000238812730154  1.0000
  C   C21       1.0  0.17650292137716045  0.4802502149029392  0.9008438956318264  1.0000
  C   C22       1.0  0.8234970788603658  0.5197497854191608  0.0991561047057507  1.0000
  C   C23       1.0  0.9476946720970586  0.6314294188556996  0.050756220481232135  1.0000
  C   C24       1.0  0.0523053272099984  0.3685705802798904  0.9492437798595731  1.0000
  N   N1        1.0  0.4894123020675232  0.9703688870752476  0.24188756353444837  1.0000
  N   N2        1.0  0.5105876981700033  0.02963111324685238  0.7581124368031289  1.0000
  F   F1        1.0  0.34794970191720037  0.4573704819524622  0.8015428967405993  1.0000
  F   F2        1.0  0.652050298320326  0.5426295183696378  0.19845710359697796  1.0000
  F   F3        1.0  0.8885457085216378  0.760212876171869  0.10339974267844004  1.0000
  F   F4        1.0  0.11145429023473154  0.23978712416346  0.896600257657026  1.0000
  I   I1        1.0  0.3061599647095008  0.7947913783405613  0.8659723224022509  1.0000
  I   I2        1.0  0.6938400360787133  0.20520862078179974  0.13402767794066575  1.0000
