data_image0
_chemical_formula_structural       H64C96N8F12I12
_chemical_formula_sum              "H64 C96 N8 F12 I12"
_cell_length_a       5.4535066055656
_cell_length_b       18.425127368497055
_cell_length_c       23.650275436500298
_cell_angle_alpha    90.0
_cell_angle_beta     90.0
_cell_angle_gamma    90.0

_space_group_name_H-M_alt    "P 1"
_space_group_IT_number       1

loop_
  _space_group_symop_operation_xyz
  'x, y, z'

loop_
  _atom_site_type_symbol
  _atom_site_label
  _atom_site_symmetry_multiplicity
  _atom_site_fract_x
  _atom_site_fract_y
  _atom_site_fract_z
  _atom_site_occupancy
  H   H1        1.0  0.6022251365109297  0.2364474053758125  0.4566051198428657  1.0000
  H   H2        1.0  0.8977748637919214  0.2635525949363413  0.9566051199168544  1.0000
  H   H3        1.0  0.39777486246851596  0.2364474053758125  0.04339487980829492  1.0000
  H   H4        1.0  0.10222513702120682  0.2635525949363413  0.5433948798822835  1.0000
  H   H5        1.0  0.39777486246851596  0.763552594705758  0.5433948798822835  1.0000
  H   H6        1.0  0.10222513702120682  0.7364474051452291  0.04339487980829492  1.0000
  H   H7        1.0  0.6022251365109297  0.763552594705758  0.9566051199168544  1.0000
  H   H8        1.0  0.8977748637919214  0.7364474051452291  0.4566051198428657  1.0000
  H   H9        1.0  0.4768285651925612  0.35289982804229536  0.5027905083780968  1.0000
  H   H10       1.0  0.023171434297161585  0.14710017226985844  0.002790508304108189  1.0000
  H   H11       1.0  0.5231714337868844  0.35289982804229536  0.9972094918438691  1.0000
  H   H12       1.0  0.9768285665159666  0.14710017226985844  0.49720949176988044  1.0000
  H   H13       1.0  0.5231714337868844  0.6471001720392752  0.49720949176988044  1.0000
  H   H14       1.0  0.9768285665159666  0.852899827811712  0.9972094918438691  1.0000
  H   H15       1.0  0.4768285651925612  0.6471001720392752  0.002790508304108189  1.0000
  H   H16       1.0  0.023171434297161585  0.852899827811712  0.5027905083780968  1.0000
  H   H17       1.0  0.87233166915851  0.3626506773258222  0.38514981334813203  1.0000
  H   H18       1.0  0.627668331144341  0.13734932244359452  0.8851498134221207  1.0000
  H   H19       1.0  0.12766833165461816  0.3626506773258222  0.11485018672585665  1.0000
  H   H20       1.0  0.37233166783510463  0.13734932244359452  0.6148501867998454  1.0000
  H   H21       1.0  0.12766833165461816  0.6373493227557483  0.6148501867998454  1.0000
  H   H22       1.0  0.37233166783510463  0.8626506776379759  0.11485018672585665  1.0000
  H   H23       1.0  0.87233166915851  0.6373493227557483  0.8851498134221207  1.0000
  H   H24       1.0  0.627668331144341  0.8626506776379759  0.38514981334813203  1.0000
  H   H25       1.0  0.02244626785178422  0.2461361259165032  0.3440526801409668  1.0000
  H   H26       1.0  0.47755373163793857  0.25386387439565056  0.8440526802149555  1.0000
  H   H27       1.0  0.977553732961344  0.2461361259165032  0.15594731993302188  1.0000
  H   H28       1.0  0.522446267341507  0.25386387439565056  0.6559473195841824  1.0000
  H   H29       1.0  0.977553732961344  0.7538638741650673  0.6559473195841824  1.0000
  H   H30       1.0  0.522446267341507  0.7461361256859198  0.15594731993302188  1.0000
  H   H31       1.0  0.02244626785178422  0.7538638741650673  0.8440526802149555  1.0000
  H   H32       1.0  0.47755373163793857  0.7461361256859198  0.3440526801409668  1.0000
  H   H33       1.0  0.42092698625454833  0.5644835957977091  0.40151704852217107  1.0000
  H   H34       1.0  0.07907301323517445  0.935516404053278  0.9015170481733316  1.0000
  H   H35       1.0  0.5790730145585798  0.5644835957977091  0.09848295155181758  1.0000
  H   H36       1.0  0.9209269857442711  0.935516404053278  0.5984829516258062  1.0000
  H   H37       1.0  0.5790730145585798  0.4355164042838613  0.5984829516258062  1.0000
  H   H38       1.0  0.9209269857442711  0.0644835960282925  0.09848295155181758  1.0000
  H   H39       1.0  0.42092698625454833  0.4355164042838613  0.9015170481733316  1.0000
  H   H40       1.0  0.07907301323517445  0.0644835960282925  0.40151704852217107  1.0000
  H   H41       1.0  0.31479435602919786  0.4816226196174107  0.37218626284643985  1.0000
  H   H42       1.0  0.18520564346052493  0.018377380694743074  0.8721862624976006  1.0000
  H   H43       1.0  0.6852056447839303  0.4816226196174107  0.12781373722754877  1.0000
  H   H44       1.0  0.8147943555189208  0.018377380694743074  0.6278137373015374  1.0000
  H   H45       1.0  0.6852056447839303  0.5183773804641597  0.6278137373015374  1.0000
  H   H46       1.0  0.8147943555189208  0.9816226193868274  0.12781373722754877  1.0000
  H   H47       1.0  0.31479435602919786  0.5183773804641597  0.8721862624976006  1.0000
  H   H48       1.0  0.18520564346052493  0.9816226193868274  0.37218626284643985  1.0000
  H   H49       1.0  0.5464715981014047  0.48072964722862105  0.42469426780960584  1.0000
  H   H50       1.0  0.9535284022014463  0.019270352540795614  0.9246942674607664  1.0000
  H   H51       1.0  0.4535284027117235  0.48072964722862105  0.07530573226438278  1.0000
  H   H52       1.0  0.04647159861168182  0.019270352540795614  0.5753057323383715  1.0000
  H   H53       1.0  0.4535284027117235  0.5192703528529494  0.5753057323383715  1.0000
  H   H54       1.0  0.04647159861168182  0.980729647540775  0.07530573226438278  1.0000
  H   H55       1.0  0.5464715981014047  0.5192703528529494  0.9246942674607664  1.0000
  H   H56       1.0  0.9535284022014463  0.980729647540775  0.42469426780960584  1.0000
  H   H57       1.0  0.8366038110862097  0.3813461323482369  0.5303640840749598  1.0000
  H   H58       1.0  0.6633961873829587  0.11865386796391685  0.030364084000971167  1.0000
  H   H59       1.0  0.1633961878932359  0.3813461323482369  0.9696359161470062  1.0000
  H   H60       1.0  0.3366038115964869  0.11865386796391685  0.46963591607301747  1.0000
  H   H61       1.0  0.1633961878932359  0.6186538677333335  0.46963591607301747  1.0000
  H   H62       1.0  0.3366038115964869  0.8813461321176536  0.9696359161470062  1.0000
  H   H63       1.0  0.8366038110862097  0.6186538677333335  0.030364084000971167  1.0000
  H   H64       1.0  0.6633961873829587  0.8813461321176536  0.5303640840749598  1.0000
  C   C1        1.0  0.4404141855350154  0.2659945400637833  0.4422413666209595  1.0000
  C   C2        1.0  0.059585813954707446  0.23400545970563338  0.9422413666949481  1.0000
  C   C3        1.0  0.5595858134444303  0.2659945400637833  0.057758633453029166  1.0000
  C   C4        1.0  0.9404141868584206  0.23400545970563338  0.5577586335270178  1.0000
  C   C5        1.0  0.5595858134444303  0.7340054600177871  0.5577586335270178  1.0000
  C   C6        1.0  0.9404141868584206  0.7659945403759371  0.057758633453029166  1.0000
  C   C7        1.0  0.4404141855350154  0.7340054600177871  0.9422413666949481  1.0000
  C   C8        1.0  0.059585813954707446  0.7659945403759371  0.4422413666209595  1.0000
  C   C9        1.0  0.3711775260222797  0.3308828811910297  0.46767996929665956  1.0000
  C   C10       1.0  0.12882247346744308  0.1691171191211241  0.9676799693706482  1.0000
  C   C11       1.0  0.6288224729571659  0.3308828811910297  0.0323200307773291  1.0000
  C   C12       1.0  0.8711775273456851  0.1691171191211241  0.5323200308513177  1.0000
  C   C13       1.0  0.6288224729571659  0.6691171188905408  0.5323200308513177  1.0000
  C   C14       1.0  0.8711775273456851  0.8308828809604463  0.0323200307773291  1.0000
  C   C15       1.0  0.3711775260222797  0.6691171188905408  0.9676799693706482  1.0000
  C   C16       1.0  0.12882247346744308  0.8308828809604463  0.46767996929665956  1.0000
  C   C17       1.0  0.16335806563263613  0.3675293144284178  0.4477002717549246  1.0000
  C   C18       1.0  0.3366419338570867  0.13247068588373595  0.9477002718289133  1.0000
  C   C19       1.0  0.8366419333468094  0.3675293144284178  0.05229972831906407  1.0000
  C   C20       1.0  0.6633580669560415  0.13247068588373595  0.5522997283930527  1.0000
  C   C21       1.0  0.8366419333468094  0.6324706856531527  0.5522997283930527  1.0000
  C   C22       1.0  0.6633580669560415  0.8675293141978344  0.05229972831906407  1.0000
  C   C23       1.0  0.16335806563263613  0.6324706856531527  0.9477002718289133  1.0000
  C   C24       1.0  0.3366419338570867  0.8675293141978344  0.4477002717549246  1.0000
  C   C25       1.0  0.03428056726092677  0.3362874137084146  0.4026725179404183  1.0000
  C   C26       1.0  0.4657194322287961  0.16371258606100217  0.902672518014407  1.0000
  C   C27       1.0  0.9657194317185188  0.3362874137084146  0.09732748213357034  1.0000
  C   C28       1.0  0.5342805685843321  0.16371258606100217  0.5973274822075589  1.0000
  C   C29       1.0  0.9657194317185188  0.6637125858304188  0.5973274822075589  1.0000
  C   C30       1.0  0.5342805685843321  0.8362874140205683  0.09732748213357034  1.0000
  C   C31       1.0  0.03428056726092677  0.6637125858304188  0.902672518014407  1.0000
  C   C32       1.0  0.4657194322287961  0.8362874140205683  0.4026725179404183  1.0000
  C   C33       1.0  0.11761740223169229  0.27119652092845176  0.37957438187571474  1.0000
  C   C34       1.0  0.38238259725803053  0.22880347938370207  0.8795743819497034  1.0000
  C   C35       1.0  0.8823825967477532  0.27119652092845176  0.12042561777544585  1.0000
  C   C36       1.0  0.6176174035550976  0.22880347938370207  0.6204256178494344  1.0000
  C   C37       1.0  0.8823825967477532  0.7288034791531187  0.6204256178494344  1.0000
  C   C38       1.0  0.6176174035550976  0.7711965206978685  0.12042561777544585  1.0000
  C   C39       1.0  0.11761740223169229  0.7288034791531187  0.8795743819497034  1.0000
  C   C40       1.0  0.38238259725803053  0.7711965206978685  0.37957438187571474  1.0000
  C   C41       1.0  0.08253823320588356  0.436597631002221  0.4740206485163427  1.0000
  C   C42       1.0  0.41746176628383924  0.06340236876719568  0.9740206485903313  1.0000
  C   C43       1.0  0.917461765773562  0.436597631002221  0.025979351557645962  1.0000
  C   C44       1.0  0.5825382326956063  0.06340236876719568  0.5259793512088066  1.0000
  C   C45       1.0  0.917461765773562  0.5634023685366124  0.5259793512088066  1.0000
  C   C46       1.0  0.5825382326956063  0.9365976313143748  0.025979351557645962  1.0000
  C   C47       1.0  0.08253823320588356  0.5634023685366124  0.9740206485903313  1.0000
  C   C48       1.0  0.41746176628383924  0.9365976313143748  0.4740206485163427  1.0000
  C   C49       1.0  0.1826448892504268  0.503365211241768  0.45664062767457164  1.0000
  C   C50       1.0  0.317355110239296  0.9966347886092191  0.9566406277485603  1.0000
  C   C51       1.0  0.8173551115627015  0.503365211241768  0.043359372399416965  1.0000
  C   C52       1.0  0.6826448887401496  0.9966347886092191  0.5433593724734056  1.0000
  C   C53       1.0  0.8173551115627015  0.4966347882970654  0.5433593724734056  1.0000
  C   C54       1.0  0.6826448887401496  0.003365211472351289  0.043359372399416965  1.0000
  C   C55       1.0  0.1826448892504268  0.4966347882970654  0.9566406277485603  1.0000
  C   C56       1.0  0.317355110239296  0.003365211472351289  0.45664062767457164  1.0000
  C   C57       1.0  0.37601707274127794  0.507873534486362  0.41147856802466287  1.0000
  C   C58       1.0  0.12398292674844487  0.9921264653646251  0.9114785680986515  1.0000
  C   C59       1.0  0.6239829262381676  0.507873534486362  0.08852143204932579  1.0000
  C   C60       1.0  0.8760170740646833  0.9921264653646251  0.5885214317004864  1.0000
  C   C61       1.0  0.6239829262381676  0.49212646559520845  0.5885214317004864  1.0000
  C   C62       1.0  0.8760170740646833  0.00787353417420818  0.08852143204932579  1.0000
  C   C63       1.0  0.37601707274127794  0.49212646559520845  0.9114785680986515  1.0000
  C   C64       1.0  0.12398292674844487  0.00787353417420818  0.41147856802466287  1.0000
  C   C65       1.0  0.905197581490418  0.4341014534138567  0.5166982791726966  1.0000
  C   C66       1.0  0.594802418812433  0.06589854689829706  0.016698279098707997  1.0000
  C   C67       1.0  0.09480241748902764  0.4341014534138567  0.9833017210492694  1.0000
  C   C68       1.0  0.40519758200069517  0.06589854689829706  0.4833017209752807  1.0000
  C   C69       1.0  0.09480241748902764  0.5658985466677137  0.4833017209752807  1.0000
  C   C70       1.0  0.40519758200069517  0.9341014531832734  0.9833017210492694  1.0000
  C   C71       1.0  0.905197581490418  0.5658985466677137  0.016698279098707997  1.0000
  C   C72       1.0  0.594802418812433  0.9341014531832734  0.5166982791726966  1.0000
  C   C73       1.0  8.131282314138844e-10  0.964770831402399  0.25000000003699435  1.0000
  C   C74       1.0  0.4999999994897228  0.535229168448588  0.750000000110983  1.0000
  C   C75       1.0  8.131282314138844e-10  0.03522916867917139  0.750000000110983  1.0000
  C   C76       1.0  0.4999999994897228  0.46477083109024525  0.25000000003699435  1.0000
  C   C77       1.0  0.8341420940716381  0.0042731395243767204  0.2830037974809493  1.0000
  C   C78       1.0  0.665857906231213  0.4957268607877771  0.7830037971321099  1.0000
  C   C79       1.0  0.1658579049078076  0.0042731395243767204  0.21699620259303934  1.0000
  C   C80       1.0  0.3341420945819152  0.4957268607877771  0.716996202667028  1.0000
  C   C81       1.0  0.1658579049078076  0.9957268605571938  0.716996202667028  1.0000
  C   C82       1.0  0.3341420945819152  0.5042731392937934  0.21699620259303934  1.0000
  C   C83       1.0  0.8341420940716381  0.9957268605571938  0.7830037971321099  1.0000
  C   C84       1.0  0.665857906231213  0.5042731392937934  0.2830037974809493  1.0000
  C   C85       1.0  0.8312422259420458  0.07990131685695302  0.284432209174957  1.0000
  C   C86       1.0  0.6687577743608052  0.4200986834552008  0.7844322092489457  1.0000
  C   C87       1.0  0.16875777487108234  0.07990131685695302  0.21556779089903164  1.0000
  C   C88       1.0  0.33124222645232304  0.4200986834552008  0.7155677909730203  1.0000
  C   C89       1.0  0.16875777487108234  0.9200986832246174  0.7155677909730203  1.0000
  C   C90       1.0  0.33124222645232304  0.5799013166263698  0.21556779089903164  1.0000
  C   C91       1.0  0.8312422259420458  0.9200986832246174  0.7844322092489457  1.0000
  C   C92       1.0  0.6687577743608052  0.5799013166263698  0.284432209174957  1.0000
  C   C93       1.0  8.131282314138844e-10  0.11560167576598647  0.25000000003699435  1.0000
  C   C94       1.0  0.4999999994897228  0.3843983245461673  0.750000000110983  1.0000
  C   C95       1.0  8.131282314138844e-10  0.884398324315584  0.750000000110983  1.0000
  C   C96       1.0  0.4999999994897228  0.6156016755354031  0.25000000003699435  1.0000
  N   N1        1.0  0.3163001944913021  0.23620693322539602  0.39905301633123674  1.0000
  N   N2        1.0  0.1836998068321033  0.2637930665440207  0.8990530159823974  1.0000
  N   N3        1.0  0.6836998063218261  0.23620693322539602  0.10094698374275189  1.0000
  N   N4        1.0  0.8163001939810249  0.2637930665440207  0.6009469838167405  1.0000
  N   N5        1.0  0.6836998063218261  0.7637930668561744  0.6009469838167405  1.0000
  N   N6        1.0  0.8163001939810249  0.7362069335375497  0.10094698374275189  1.0000
  N   N7        1.0  0.3163001944913021  0.7637930668561744  0.8990530159823974  1.0000
  N   N8        1.0  0.1836998068321033  0.7362069335375497  0.39905301633123674  1.0000
  F   F1        1.0  0.670388462767953  0.9672830615256568  0.31529702645625707  1.0000
  F   F2        1.0  0.829611537534898  0.5327169383253303  0.8152970265302457  1.0000
  F   F3        1.0  0.3296115380451752  0.9672830615256568  0.1847029736177316  1.0000
  F   F4        1.0  0.1703884614445476  0.5327169383253303  0.6847029736917203  1.0000
  F   F5        1.0  0.3296115380451752  0.03271693855591359  0.6847029736917203  1.0000
  F   F6        1.0  0.1703884614445476  0.4672830612135031  0.1847029736177316  1.0000
  F   F7        1.0  0.670388462767953  0.03271693855591359  0.8152970265302457  1.0000
  F   F8        1.0  0.829611537534898  0.4672830612135031  0.31529702645625707  1.0000
  F   F9        1.0  8.131282314138844e-10  0.18956518292361232  0.25000000003699435  1.0000
  F   F10       1.0  0.4999999994897228  0.31043481738854145  0.750000000110983  1.0000
  F   F11       1.0  8.131282314138844e-10  0.8104348171579581  0.750000000110983  1.0000
  F   F12       1.0  0.4999999994897228  0.689565182693029  0.25000000003699435  1.0000
  I   I1        1.0  8.131282314138844e-10  0.8510455725158482  0.25000000003699435  1.0000
  I   I2        1.0  0.4999999994897228  0.6489544273351389  0.750000000110983  1.0000
  I   I3        1.0  8.131282314138844e-10  0.1489544275657222  0.750000000110983  1.0000
  I   I4        1.0  0.4999999994897228  0.35104557274643156  0.25000000003699435  1.0000
  I   I5        1.0  0.5876119370112409  0.1404779776136294  0.3359905917939646  1.0000
  I   I6        1.0  0.9123880632916099  0.35952202269852435  0.8359905918679532  1.0000
  I   I7        1.0  0.41238806380188714  0.1404779776136294  0.164009408280024  1.0000
  I   I8        1.0  0.08761193568783561  0.35952202269852435  0.6640094083540127  1.0000
  I   I9        1.0  0.41238806380188714  0.859522022467941  0.6640094083540127  1.0000
  I   I10       1.0  0.08761193568783561  0.6404779773830461  0.164009408280024  1.0000
  I   I11       1.0  0.5876119370112409  0.859522022467941  0.8359905918679532  1.0000
  I   I12       1.0  0.9123880632916099  0.6404779773830461  0.3359905917939646  1.0000
