data_image0
_chemical_formula_structural       H96C120N16O24S4
_chemical_formula_sum              "H96 C120 N16 O24 S4"
_cell_length_a       19.548124596592086
_cell_length_b       15.29006741452274
_cell_length_c       8.279506577464467
_cell_angle_alpha    90.0
_cell_angle_beta     94.54063344291188
_cell_angle_gamma    90.0

_space_group_name_H-M_alt    "P 1"
_space_group_IT_number       1

loop_
  _space_group_symop_operation_xyz
  'x, y, z'

loop_
  _atom_site_type_symbol
  _atom_site_label
  _atom_site_symmetry_multiplicity
  _atom_site_fract_x
  _atom_site_fract_y
  _atom_site_fract_z
  _atom_site_occupancy
  H   H1        1.0  0.3866910645141534  0.3050399035893056  0.6753013920123407  1.0000
  H   H2        1.0  0.3866910646268062  0.6949600967689178  0.17530139247111903  1.0000
  H   H3        1.0  0.8866910647438109  0.805039903114398  0.6753013923154676  1.0000
  H   H4        1.0  0.8866910643432986  0.1949600965898061  0.17530139268294787  1.0000
  H   H5        1.0  0.44376858656642026  0.39224947394956955  0.8953128909655008  1.0000
  H   H6        1.0  0.44376858667907315  0.6077505264086539  0.39531289142427917  1.0000
  H   H7        1.0  0.9437685867960776  0.892249473474662  0.8953128912686277  1.0000
  H   H8        1.0  0.9437685869067678  0.10775052622954215  0.39531289051924656  1.0000
  H   H9        1.0  0.3308307997039365  0.46564337795120403  0.20941180407247068  1.0000
  H   H10       1.0  0.33083079959128364  0.5343566224070194  0.7094118036136924  1.0000
  H   H11       1.0  0.8308307994184663  0.9656433781303158  0.20941180307614007  1.0000
  H   H12       1.0  0.8308307998209409  0.03435662222790776  0.7094118039168192  1.0000
  H   H13       1.0  0.41954736512159774  0.4545291418008394  0.1810625137075951  1.0000
  H   H14       1.0  0.41954736552210986  0.5454708585573841  0.6810625133401149  1.0000
  H   H15       1.0  0.9195473653512551  0.9545291413259318  0.18106251401072201  1.0000
  H   H16       1.0  0.9195473652386023  0.045470858378272326  0.6810625135519438  1.0000
  H   H17       1.0  0.3769184133691989  0.37540505181475464  0.29661249671410694  1.0000
  H   H18       1.0  0.3769184132585087  0.6245949485434689  0.7966124974634881  1.0000
  H   H19       1.0  0.8769184130856915  0.875405051339847  0.29661249692593583  1.0000
  H   H20       1.0  0.8769184129750012  0.12459494836435711  0.7966124976753169  1.0000
  H   H21       1.0  0.29004312267720905  0.20291390782575192  0.6115559927259018  1.0000
  H   H22       1.0  0.2900431227898619  0.7970860925324716  0.11155599318468021  1.0000
  H   H23       1.0  0.7900431229068665  0.7029139080048636  0.6115559930290287  1.0000
  H   H24       1.0  0.7900431230175566  0.2970860923533598  0.11155599227964764  1.0000
  H   H25       1.0  0.7180429280945895  0.29254579124690017  0.2355814402120509  1.0000
  H   H26       1.0  0.7180429279838993  0.7074542091113234  0.7355814409614321  1.0000
  H   H27       1.0  0.21804292786689478  0.792545791426012  0.23558144111708348  1.0000
  H   H28       1.0  0.21804292826740684  0.20745420893221156  0.7355814407496032  1.0000
  H   H29       1.0  0.5958496851235838  0.23444258830378023  0.25430000961814136  1.0000
  H   H30       1.0  0.5958496855260585  0.7655574120544433  0.7543000104588206  1.0000
  H   H31       1.0  0.09584968540905396  0.734442588482892  0.25430001061447194  1.0000
  H   H32       1.0  0.09584968529640116  0.2655574118753315  0.7543000101556937  1.0000
  H   H33       1.0  0.7427590897258946  0.21510833869025572  0.9008369129230271  1.0000
  H   H34       1.0  0.7427590898385474  0.7848916610139485  0.40083691338180555  1.0000
  H   H35       1.0  0.24275909000940207  0.7151083388693674  0.9008369127111984  1.0000
  H   H36       1.0  0.24275908960889006  0.28489166148885603  0.40083691307867864  1.0000
  H   H37       1.0  0.6944816540085527  0.9575696766446867  0.8862393203797742  1.0000
  H   H38       1.0  0.6944816541212055  0.04243032371353676  0.3862393208385525  1.0000
  H   H39       1.0  0.19448165429402275  0.45756967646557495  0.8862393213761047  1.0000
  H   H40       1.0  0.19448165440471296  0.5424303238926486  0.3862393206267236  1.0000
  H   H41       1.0  0.5191146210165666  0.06214141927834382  0.4628281953791705  1.0000
  H   H42       1.0  0.5191146214190412  0.9378585804258603  0.9628281962198497  1.0000
  H   H43       1.0  0.019114621302036658  0.5621414194574555  0.4628281963755011  1.0000
  H   H44       1.0  0.019114621189383847  0.43785858024674856  0.9628281959167229  1.0000
  H   H45       1.0  0.4818102744842556  0.2479956567358509  0.586078290238051  1.0000
  H   H46       1.0  0.48181027459690845  0.7520043436223726  0.0860782906968293  1.0000
  H   H47       1.0  0.9818102747139129  0.7479956562609432  0.5860782905411779  1.0000
  H   H48       1.0  0.9818102748246031  0.2520043434432609  0.08607828979179674  1.0000
  H   H49       1.0  0.2899636160208975  0.07513897021204605  0.011738596996549657  1.0000
  H   H50       1.0  0.2899636159082447  0.9248610301461774  0.5117385965377713  1.0000
  H   H51       1.0  0.7899636157354274  0.5751389703911578  0.011738596000219042  1.0000
  H   H52       1.0  0.7899636156247372  0.4248610299670657  0.5117385967496002  1.0000
  H   H53       1.0  0.6374253836579966  0.277269502812871  0.6735912396774658  1.0000
  H   H54       1.0  0.6374253837706494  0.7227304968913332  0.17359124013624416  1.0000
  H   H55       1.0  0.1374253839415041  0.7772695029919827  0.673591239465637  1.0000
  H   H56       1.0  0.13742538354099204  0.2227304973662407  0.17359123983311728  1.0000
  H   H57       1.0  0.33248957941167145  0.030473800890991293  0.7465110925540475  1.0000
  H   H58       1.0  0.3324895795223617  0.9695261994672322  0.24651109180466643  1.0000
  H   H59       1.0  0.8324895796393662  0.5304738010701031  0.746511091649015  1.0000
  H   H60       1.0  0.832489579752019  0.46952619928812045  0.24651109210779332  1.0000
  H   H61       1.0  0.595004446539832  0.9554979637384433  0.6159610114119484  1.0000
  H   H62       1.0  0.5950044466524848  0.04450203661978028  0.11596101187072676  1.0000
  H   H63       1.0  0.09500444682333949  0.4554979635593315  0.6159610112001197  1.0000
  H   H64       1.0  0.09500444693599229  0.5445020367988921  0.11596101165889793  1.0000
  H   H65       1.0  0.7170749862133579  0.42996830829899957  0.28203539860264826  1.0000
  H   H66       1.0  0.7170749866138697  0.570031692059224  0.782035398235168  1.0000
  H   H67       1.0  0.21707498649686524  0.9299683084781113  0.2820353983908194  1.0000
  H   H68       1.0  0.21707498638617503  0.07003169188011218  0.7820353991402005  1.0000
  H   H69       1.0  0.5661172252770604  0.6457407160037814  0.5300664728405428  1.0000
  H   H70       1.0  0.5661172248765484  0.3542592843544421  0.030066473208023043  1.0000
  H   H71       1.0  0.06611722504936568  0.14574071582466966  0.5300664737455753  1.0000
  H   H72       1.0  0.0661172251600559  0.8542592838795345  0.030066472996194214  1.0000
  H   H73       1.0  0.4533468732287959  0.059838220146170525  0.6907119350997806  1.0000
  H   H74       1.0  0.4533468733394862  0.9401617795580336  0.1907119343503994  1.0000
  H   H75       1.0  0.9533468734584534  0.5598382203252822  0.6907119354029074  1.0000
  H   H76       1.0  0.9533468730559786  0.44016177937892187  0.19071193456222824  1.0000
  H   H77       1.0  0.5326055589786642  0.13242533960817082  0.8973340649968963  1.0000
  H   H78       1.0  0.5326055590913171  0.8675746600960333  0.39733406545567457  1.0000
  H   H79       1.0  0.03260555926217184  0.6324253397872825  0.8973340647850674  1.0000
  H   H80       1.0  0.032605558861659764  0.36757465991692156  0.39733406515254766  1.0000
  H   H81       1.0  0.6767767749042076  0.6931924132612357  0.43756941973583985  1.0000
  H   H82       1.0  0.6767767747935175  0.3068075870969878  0.937569420485221  1.0000
  H   H83       1.0  0.1767767746765129  0.19319241308212395  0.4375694206408724  1.0000
  H   H84       1.0  0.176776775077025  0.8068075866220801  0.9375694202733921  1.0000
  H   H85       1.0  0.7985839975689245  0.06408582273936204  0.9626594654387567  1.0000
  H   H86       1.0  0.7985839971664498  0.9359141769648421  0.46265946459807744  1.0000
  H   H87       1.0  0.2985839973392671  0.5640858229184738  0.9626594651356297  1.0000
  H   H88       1.0  0.2985839974499574  0.4359141774397497  0.46265946438624866  1.0000
  H   H89       1.0  0.7194814837843501  0.08247571745839569  0.05377393918925169  1.0000
  H   H90       1.0  0.7194814836736598  0.9175242822458084  0.5537739399386328  1.0000
  H   H91       1.0  0.21948148406982013  0.5824757176375074  0.05377394018558229  1.0000
  H   H92       1.0  0.21948148395716732  0.41752428272071607  0.553773939726804  1.0000
  H   H93       1.0  0.7537769364432666  0.5862417173835457  0.31126153822141805  1.0000
  H   H94       1.0  0.7537769363306138  0.4137582823206585  0.8112615377626398  1.0000
  H   H95       1.0  0.2537769362136092  0.08624171785845326  0.3112615379182911  1.0000
  H   H96       1.0  0.2537769361009564  0.9137582824997703  0.8112615374595128  1.0000
  C   C1        1.0  0.3025303161068125  0.27951858118955214  0.8090364635454114  1.0000
  C   C2        1.0  0.30253031621946536  0.720481418514652  0.3090364640041896  1.0000
  C   C3        1.0  0.802530315823305  0.7795185813686639  0.8090364637572401  1.0000
  C   C4        1.0  0.8025303159359578  0.22048141833554022  0.3090364642160185  1.0000
  C   C5        1.0  0.3560805955839064  0.36824901927195014  0.03750950823052443  1.0000
  C   C6        1.0  0.35608059598638103  0.6317509804322541  0.5375095090712037  1.0000
  C   C7        1.0  0.8560805958135638  0.8682490194510618  0.037509508533651335  1.0000
  C   C8        1.0  0.8560805957028736  0.13175098090716164  0.5375095092830324  1.0000
  C   C9        1.0  0.3946230708316423  0.3614001501884472  0.9092509006912967  1.0000
  C   C10       1.0  0.3946230709423325  0.638599849515757  0.40925089994191555  1.0000
  C   C11       1.0  0.8946230705481346  0.861400150367559  0.9092509009031255  1.0000
  C   C12       1.0  0.894623070658825  0.1385998493366452  0.4092509001537443  1.0000
  C   C13       1.0  0.3716430495012794  0.4182132829529841  0.18986710885405714  1.0000
  C   C14       1.0  0.3716430493905892  0.5817867167512201  0.6898671096034383  1.0000
  C   C15       1.0  0.8716430492177718  0.9182132831320958  0.18986710906588602  1.0000
  C   C16       1.0  0.8716430496202466  0.08178671722612765  0.6898671099065652  1.0000
  C   C17       1.0  0.387768633175003  0.1275586841525302  0.10038737069341634  1.0000
  C   C18       1.0  0.38776863306235015  0.8724413162056933  0.6003873702346381  1.0000
  C   C19       1.0  0.8877686334046603  0.6275586836776226  0.10038737099654323  1.0000
  C   C20       1.0  0.8877686332920074  0.37244131602658154  0.6003873705377649  1.0000
  C   C21       1.0  0.45636334775500037  0.14413814538886333  0.07206629215867548  1.0000
  C   C22       1.0  0.4563633476423475  0.8558618543153408  0.5720662916998972  1.0000
  C   C23       1.0  0.9563633479826952  0.6441381455679751  0.07206629125364293  1.0000
  C   C24       1.0  0.9563633478720049  0.35586185479024846  0.5720662920030241  1.0000
  C   C25       1.0  0.5423362184675827  0.3346642046286702  0.4670264245243118  1.0000
  C   C26       1.0  0.5423362188680948  0.6653357957295533  0.9670264241568316  1.0000
  C   C27       1.0  0.042336218751090296  0.8346642041537625  0.467026424312483  1.0000
  C   C28       1.0  0.04233621863843748  0.16533579555044156  0.9670264238537047  1.0000
  C   C29       1.0  0.49911764712343676  0.40117771188986395  0.5241178422625361  1.0000
  C   C30       1.0  0.49911764723412694  0.5988222878143402  0.02411784151315498  1.0000
  C   C31       1.0  0.9991176473511316  0.9011777120689757  0.5241178413575036  1.0000
  C   C32       1.0  0.9991176474637844  0.0988222882892478  0.024117841816281894  1.0000
  C   C33       1.0  0.47324100605340913  0.20572355207618842  0.3469330095505832  1.0000
  C   C34       1.0  0.47324100594075624  0.7942764482820351  0.8469330090918049  1.0000
  C   C35       1.0  0.9732410062811038  0.7057235516012809  0.34693300864555066  1.0000
  C   C36       1.0  0.9732410061704136  0.29427644810292336  0.8469330093949317  1.0000
  C   C37       1.0  0.5814367977441  0.5109973467205854  0.46431189651052057  1.0000
  C   C38       1.0  0.5814367976314472  0.4890026529836188  0.9643118960517422  1.0000
  C   C39       1.0  0.0814367980276075  0.010997347195492965  0.4643118962986918  1.0000
  C   C40       1.0  0.0814367979169173  0.9890026531627305  0.964311897048073  1.0000
  C   C41       1.0  0.5618395999339475  0.08652401223185154  0.5427520549114391  1.0000
  C   C42       1.0  0.5618396000466003  0.9134759874723527  0.04275205537021739  1.0000
  C   C43       1.0  0.061839600217454986  0.5865240124109633  0.5427520546996103  1.0000
  C   C44       1.0  0.0618396003301078  0.41347598729324087  0.04275205515838857  1.0000
  C   C45       1.0  0.5175918793954484  0.24153456946123447  0.4906705153282377  1.0000
  C   C46       1.0  0.517591879797923  0.758465430896989  0.9906705161689169  1.0000
  C   C47       1.0  0.017591879680918455  0.7415345689863267  0.4906705163245682  1.0000
  C   C48       1.0  0.017591879568265648  0.2584654307178773  0.9906705158657898  1.0000
  C   C49       1.0  0.6237432980484802  0.44847421493295225  0.3980547833677011  1.0000
  C   C50       1.0  0.6237432979358273  0.5515257847712519  0.8980547829089227  1.0000
  C   C51       1.0  0.12374329833198763  0.948474215112064  0.3980547831558723  1.0000
  C   C52       1.0  0.12374329822129744  0.05152578524615951  0.8980547839052534  1.0000
  C   C53       1.0  0.34289968962728196  0.08635934977931004  0.985325285830955  1.0000
  C   C54       1.0  0.3428996897399348  0.913640649924894  0.4853252862897333  1.0000
  C   C55       1.0  0.8428996898569394  0.5863593499584218  0.985325286134082  1.0000
  C   C56       1.0  0.8428996894544648  0.41364064974578235  0.48532528529340274  1.0000
  C   C57       1.0  0.49990694764529403  0.1843735690349142  0.20103253884085243  1.0000
  C   C58       1.0  0.49990694804580604  0.8156264313233093  0.7010325384733722  1.0000
  C   C59       1.0  0.9999069478749515  0.6843735692140259  0.2010325391439793  1.0000
  C   C60       1.0  0.9999069477622987  0.31562643114419753  0.7010325386852009  1.0000
  C   C61       1.0  0.6025302564762708  0.3567284415514954  0.395277421545206  1.0000
  C   C62       1.0  0.6025302563636179  0.643271558806728  0.8952774210864276  1.0000
  C   C63       1.0  0.10253025675977831  0.8567284410765879  0.3952774213333771  1.0000
  C   C64       1.0  0.1025302566471255  0.14327155862761629  0.8952774208745988  1.0000
  C   C65       1.0  0.4022409871495777  0.18998419243337733  0.36822007894697983  1.0000
  C   C66       1.0  0.4022409870388875  0.8100158072708269  0.868220079696361  1.0000
  C   C67       1.0  0.9022409868660702  0.6899841926124891  0.36822007915880867  1.0000
  C   C68       1.0  0.9022409867534175  0.31001580709171506  0.8682200787000304  1.0000
  C   C69       1.0  0.6705897733958972  0.14740164898549266  0.7461999829565755  1.0000
  C   C70       1.0  0.67058977350855  0.8525983507187115  0.2461999834153537  1.0000
  C   C71       1.0  0.17058977368136727  0.6474016491646044  0.746199983952906  1.0000
  C   C72       1.0  0.17058977379205748  0.3525983505395997  0.24619998320352485  1.0000
  C   C73       1.0  0.6577447439534668  0.05667370695677526  0.7341367150111845  1.0000
  C   C74       1.0  0.6577447440661196  0.9433262927474289  0.23413671546996284  1.0000
  C   C75       1.0  0.15774474423697432  0.5566737071358869  0.7341367147993557  1.0000
  C   C76       1.0  0.15774474383646223  0.4433262925683171  0.23413671516683596  1.0000
  C   C77       1.0  0.571926380378858  0.1765871494742705  0.5603928397038918  1.0000
  C   C78       1.0  0.5719263804895481  0.8234128502299337  0.06039283895451071  1.0000
  C   C79       1.0  0.07192638066236542  0.6765871496533823  0.560392839492063  1.0000
  C   C80       1.0  0.07192638077305565  0.3234128500508219  0.06039283874268187  1.0000
  C   C81       1.0  0.628116645343897  0.2073590334198644  0.662096536907837  1.0000
  C   C82       1.0  0.6281166454565499  0.7926409669383591  0.16209653736661533  1.0000
  C   C83       1.0  0.12811664562740446  0.7073590329449567  0.6620965366960081  1.0000
  C   C84       1.0  0.1281166457400573  0.2926409667592474  0.1620965371547865  1.0000
  C   C85       1.0  0.36695111129881863  0.06203665649629889  0.8384513567759618  1.0000
  C   C86       1.0  0.3669511108983065  0.9379633432079052  0.338451357143442  1.0000
  C   C87       1.0  0.8669511110153113  0.5620366566754106  0.8384513569877907  1.0000
  C   C88       1.0  0.8669511111279639  0.43796334368281287  0.3384513574465689  1.0000
  C   C89       1.0  0.6043444464514872  0.025448253395561986  0.6296186389242306  1.0000
  C   C90       1.0  0.6043444465621776  0.9745517463086422  0.1296186381748495  1.0000
  C   C91       1.0  0.10434444622182994  0.5254482535746737  0.6296186386211038  1.0000
  C   C92       1.0  0.10434444633448273  0.4745517467835497  0.12961863907988205  1.0000
  C   C93       1.0  0.6852462288757798  0.47749820403443205  0.33905931157714675  1.0000
  C   C94       1.0  0.6852462287631269  0.5225017963237915  0.8390593111183685  1.0000
  C   C95       1.0  0.18524622864612245  0.9774982035595245  0.3390593112740199  1.0000
  C   C96       1.0  0.18524622853543224  0.02250179614467967  0.8390593120234011  1.0000
  C   C97       1.0  0.5997952680949179  0.598992097399191  0.47672665264319275  1.0000
  C   C98       1.0  0.5997952684954301  0.40100790295903255  0.9767266522757123  1.0000
  C   C99       1.0  0.09979526837842553  0.0989920972200792  0.4767266524313639  1.0000
  C   C100      1.0  0.09979526826577272  0.901007902484125  0.9767266519725857  1.0000
  C   C101      1.0  0.43507298858816135  0.07859494058597716  0.806437720274194  1.0000
  C   C102      1.0  0.4350729881876493  0.9214050597722463  0.30643772064167424  1.0000
  C   C103      1.0  0.9350729883046538  0.5785949401110695  0.8064377204860228  1.0000
  C   C104      1.0  0.9350729884173066  0.4214050595931346  0.3064377209448011  1.0000
  C   C105      1.0  0.47958217334612435  0.1194020503968449  0.9217937927028169  1.0000
  C   C106      1.0  0.47958217345681464  0.8805979493073592  0.4217937919534358  1.0000
  C   C107      1.0  0.9795821730606542  0.6194020505759567  0.9217937917064863  1.0000
  C   C108      1.0  0.979582173173307  0.38059794978226685  0.4217937921652647  1.0000
  C   C109      1.0  0.6622541470731808  0.6247925219038799  0.4235839253115781  1.0000
  C   C110      1.0  0.662254146960528  0.37520747780032415  0.9235839248527998  1.0000
  C   C111      1.0  0.1622541468435234  0.12479252172476825  0.4235839250084512  1.0000
  C   C112      1.0  0.1622541467308706  0.8752074779794359  0.923583924549673  1.0000
  C   C113      1.0  0.743704346602145  0.07813236381582622  0.9373911138321728  1.0000
  C   C114      1.0  0.7437043462016331  0.9218676365423972  0.43739111419965293  1.0000
  C   C115      1.0  0.24370434637248775  0.578132363994938  0.9373911135290457  1.0000
  C   C116      1.0  0.24370434648514053  0.4218676363632855  0.4373911139878241  1.0000
  C   C117      1.0  0.7051696039462303  0.5646035505245981  0.35346461289231346  1.0000
  C   C118      1.0  0.7051696038335774  0.435396449179606  0.853464612433535  1.0000
  C   C119      1.0  0.20516960422973785  0.06460355034548634  0.3534646126804846  1.0000
  C   C120      1.0  0.20516960411904758  0.9353964493587178  0.8534646134298657  1.0000
  N   N1        1.0  0.2646028343872786  0.23080173319890837  0.7020379924346232  1.0000
  N   N2        1.0  0.264602833984804  0.7691982665052958  0.20203799159394398  1.0000
  N   N3        1.0  0.7646028341037711  0.7308017333780201  0.702037992646452  1.0000
  N   N4        1.0  0.7646028342144613  0.2691982669802034  0.20203799189707092  1.0000
  N   N5        1.0  0.3645365241987891  0.31131904071781885  0.7836152528687914  1.0000
  N   N6        1.0  0.36453652379827706  0.6886809589863853  0.2836152532362717  1.0000
  N   N7        1.0  0.8645365239152817  0.8113190408969306  0.7836152530806203  1.0000
  N   N8        1.0  0.8645365240279343  0.18868095946129287  0.28361525353939854  1.0000
  N   N9        1.0  0.7329785954249479  0.15815775394836495  0.8402932628831166  1.0000
  N   N10       1.0  0.7329785955356382  0.8418422457558392  0.3402932621337355  1.0000
  N   N11       1.0  0.23297859519529057  0.6581577541274767  0.8402932625799897  1.0000
  N   N12       1.0  0.2329785953059808  0.34184224557672743  0.3402932618306086  1.0000
  N   N13       1.0  0.7097247742947627  0.012236509161646493  0.828505754743049  1.0000
  N   N14       1.0  0.7097247744074155  0.9877634905425576  0.32850575520182723  1.0000
  N   N15       1.0  0.20972477457827024  0.5122365093407583  0.8285057545312201  1.0000
  N   N16       1.0  0.20972477417775823  0.4877634903634459  0.3285057548987004  1.0000
  O   O1        1.0  0.36163673883371655  0.15124309117195492  0.24250101163458587  1.0000
  O   O2        1.0  0.3616367392342286  0.8487569085322492  0.7425010112671057  1.0000
  O   O3        1.0  0.8616367390633739  0.6512430913510666  0.24250101193771276  1.0000
  O   O4        1.0  0.8616367389507211  0.34875690835313744  0.7425010114789344  1.0000
  O   O5        1.0  0.639972695530373  0.2986349396774407  0.3287131581075643  1.0000
  O   O6        1.0  0.6399726954177201  0.7013650600267634  0.828713157648786  1.0000
  O   O7        1.0  0.13997269530071557  0.7986349398565524  0.3287131578044375  1.0000
  O   O8        1.0  0.13997269519002536  0.20136506050167105  0.8287131585538186  1.0000
  O   O9        1.0  0.5644263244946539  0.19618982301875182  0.1694518284403843  1.0000
  O   O10       1.0  0.564426324382001  0.8038101773394717  0.6694518279816061  1.0000
  O   O11       1.0  0.06442632426499652  0.6961898231978636  0.16945182813725745  1.0000
  O   O12       1.0  0.0644263241523437  0.3038101771603599  0.6694518276784791  1.0000
  O   O13       1.0  0.5199877400145395  0.4884535991585175  0.5201414977507945  1.0000
  O   O14       1.0  0.5199877401271923  0.511546401199706  0.02014149820957286  1.0000
  O   O15       1.0  0.01998773978488209  0.9884535986836099  0.5201414974476676  1.0000
  O   O16       1.0  0.0199877398975349  0.011546401020594234  0.02014149790644596  1.0000
  O   O17       1.0  0.3713066150417755  0.2069785936322363  0.4900474542848299  1.0000
  O   O18       1.0  0.37130661492912265  0.7930214060719678  0.9900474538260514  1.0000
  O   O19       1.0  0.8713066152694702  0.7069785938113481  0.4900474533797972  1.0000
  O   O20       1.0  0.8713066151587799  0.2930214065468754  0.9900474541291784  1.0000
  O   O21       1.0  0.4425526634171932  0.3905801340239813  0.5789540863801514  1.0000
  O   O22       1.0  0.4425526635278833  0.6094198656802229  0.07895408563077033  1.0000
  O   O23       1.0  0.9425526631336856  0.890580134203093  0.5789540865919803  1.0000
  O   O24       1.0  0.9425526632443758  0.10941986615513048  0.07895408584259916  1.0000
  S   S1        1.0  0.2790578285282902  0.30973818503257566  0.9982156718380089  1.0000
  S   S2        1.0  0.27905782864094303  0.6902618146716285  0.4982156722967872  1.0000
  S   S3        1.0  0.7790578287579476  0.8097381852116875  0.9982156721411357  1.0000
  S   S4        1.0  0.7790578288706004  0.19026181449251672  0.4982156725999141  1.0000
