data_image0
_chemical_formula_structural       H56C80N8O16S8Cl8
_chemical_formula_sum              "H56 C80 N8 O16 S8 Cl8"
_cell_length_a       13.389676029225647
_cell_length_b       5.07094498874474
_cell_length_c       30.043620875770564
_cell_angle_alpha    90.0
_cell_angle_beta     95.95926341525262
_cell_angle_gamma    90.0

_space_group_name_H-M_alt    "P 1"
_space_group_IT_number       1

loop_
  _space_group_symop_operation_xyz
  'x, y, z'

loop_
  _atom_site_type_symbol
  _atom_site_label
  _atom_site_symmetry_multiplicity
  _atom_site_fract_x
  _atom_site_fract_y
  _atom_site_fract_z
  _atom_site_occupancy
  H   H1        1.0  0.5298563700406085  0.5272532626432297  0.5796935927121688  1.0000
  H   H2        1.0  0.47014362957233796  0.5272532626432297  0.9203064072092029  1.0000
  H   H3        1.0  0.029856370211079668  0.02725326350546941  0.5796935928539347  1.0000
  H   H4        1.0  0.9701436294796172  0.02725326350546941  0.9203064074020948  1.0000
  H   H5        1.0  0.4701436298884973  0.4727467376043099  0.4203064073640382  1.0000
  H   H6        1.0  0.5298563703567677  0.4727467376043099  0.07969359286700413  1.0000
  H   H7        1.0  0.9701436297180261  0.9727467367420704  0.42030640722227225  1.0000
  H   H8        1.0  0.029856370449488526  0.9727467367420704  0.0796935926741122  1.0000
  H   H9        1.0  0.42533666681170257  0.8694874603819026  0.6105260265616387  1.0000
  H   H10       1.0  0.5746633336258601  0.8694874603819026  0.8894739736944846  1.0000
  H   H11       1.0  0.9253366666412314  0.36948745927212334  0.6105260264198727  1.0000
  H   H12       1.0  0.07466333371858094  0.36948745927212334  0.8894739735015926  1.0000
  H   H13       1.0  0.574663333117403  0.130512539865637  0.38947397351456825  1.0000
  H   H14       1.0  0.42533666630324557  0.130512539865637  0.11052602638172239  1.0000
  H   H15       1.0  0.07466333328787432  0.6305125409754163  0.3894739736563342  1.0000
  H   H16       1.0  0.9253366669573908  0.6305125409754163  0.11052602657470807  1.0000
  H   H17       1.0  0.2909792936939862  0.06994747937263707  0.4848687501244704  1.0000
  H   H18       1.0  0.7090207057266625  0.06994747937263707  0.0151312497718203  1.0000
  H   H19       1.0  0.7909792943481312  0.5699474804824164  0.484868750317456  1.0000
  H   H20       1.0  0.20902070589713376  0.5699474804824164  0.015131249913586225  1.0000
  H   H21       1.0  0.7090207061573691  0.9300525208749025  0.5151312496170787  1.0000
  H   H22       1.0  0.2909792942024432  0.9300525208749025  0.9848687503043866  1.0000
  H   H23       1.0  0.20902070632784037  0.43005251976512326  0.5151312497588446  1.0000
  H   H24       1.0  0.790979294031972  0.43005251976512326  0.9848687501626207  1.0000
  H   H25       1.0  0.3893682959971186  0.7448430516172828  0.4478512529142447  1.0000
  H   H26       1.0  0.610631704170396  0.7448430516172828  0.05214874698213968  1.0000
  H   H27       1.0  0.8893682958266473  0.2448430505075035  0.44785125277247884  1.0000
  H   H28       1.0  0.11063170434086723  0.2448430505075035  0.0521487471239056  1.0000
  H   H29       1.0  0.6106317039319872  0.25515694863025684  0.5521487471619622  1.0000
  H   H30       1.0  0.38936829568095926  0.25515694863025684  0.9478512527594094  1.0000
  H   H31       1.0  0.11063170402470797  0.7551569497400361  0.5521487469690702  1.0000
  H   H32       1.0  0.8893682955882385  0.7551569497400361  0.9478512529523012  1.0000
  H   H33       1.0  0.043973433445671145  0.9385804994067116  0.6885466730456508  1.0000
  H   H34       1.0  0.9560265661672752  0.9385804994067116  0.8114533268757208  1.0000
  H   H35       1.0  0.5439734340220659  0.43858050026895135  0.6885466729039786  1.0000
  H   H36       1.0  0.45602656633774646  0.43858050026895135  0.8114533270174867  1.0000
  H   H37       1.0  0.9560265664834346  0.06141949886880895  0.31145332703055606  1.0000
  H   H38       1.0  0.04397343376183044  0.06141949886880895  0.18854667320048618  1.0000
  H   H39       1.0  0.4560265658292895  0.5614194999785883  0.3114533268375704  1.0000
  H   H40       1.0  0.5439734335913592  0.5614194999785883  0.18854667305872022  1.0000
  H   H41       1.0  0.22433107932062268  0.06761509950532406  0.7293114630466827  1.0000
  H   H42       1.0  0.7756689210391896  0.06761509950532406  0.7706885368747826  1.0000
  H   H43       1.0  0.7243310791501515  0.5676151006151033  0.7293114629049169  1.0000
  H   H44       1.0  0.2756689212096608  0.5676151006151033  0.7706885370165485  1.0000
  H   H45       1.0  0.775668920608483  0.9323849007422157  0.2706885370295241  1.0000
  H   H46       1.0  0.22433107888991613  0.9323849007422157  0.2293114632014244  1.0000
  H   H47       1.0  0.2756689207012038  0.4323848996324362  0.2706885368366322  1.0000
  H   H48       1.0  0.7243310787194449  0.4323848996324362  0.22931146305965847  1.0000
  H   H49       1.0  0.29221956751437184  0.16183264693690594  0.57600200053108  1.0000
  H   H50       1.0  0.7077804328454406  0.16183264693690594  0.9239979993903854  1.0000
  H   H51       1.0  0.7922195674216511  0.6618326480466853  0.5760020007239719  1.0000
  H   H52       1.0  0.20778043219129547  0.6618326480466853  0.9239979991973998  1.0000
  H   H53       1.0  0.7077804323369835  0.8381673533106336  0.42399799921046916  1.0000
  H   H54       1.0  0.2922195678305311  0.8381673533106336  0.07600200068591532  1.0000
  H   H55       1.0  0.2077804325074547  0.33816735220085437  0.42399799935223503  1.0000
  H   H56       1.0  0.7922195676600599  0.33816735220085437  0.07600200054414939  1.0000
  C   C1        1.0  0.46971746743816695  0.6009478936892088  0.5102928227271506  1.0000
  C   C2        1.0  0.5302825321747795  0.6009478936892088  0.9897071771942211  1.0000
  C   C3        1.0  0.9697174672676958  0.10094789257942943  0.5102928225853847  1.0000
  C   C4        1.0  0.03028253234525069  0.10094789257942943  0.9897071773359869  1.0000
  C   C5        1.0  0.5302825324909387  0.3990521065583309  0.48970717734905633  1.0000
  C   C6        1.0  0.46971746775432627  0.3990521065583309  0.010292822881985927  1.0000
  C   C7        1.0  0.03028253258365954  0.8990521076681102  0.48970717715616446  1.0000
  C   C8        1.0  0.969717467583855  0.8990521076681102  0.010292822740220002  1.0000
  C   C9        1.0  0.4786940630616187  0.6413861414823012  0.5567712578654166  1.0000
  C   C10       1.0  0.5213059365513278  0.6413861414823012  0.9432287420559551  1.0000
  C   C11       1.0  0.9786940628911475  0.14138614037252184  0.5567712577236507  1.0000
  C   C12       1.0  0.021305936721799017  0.14138614037252184  0.943228742197721  1.0000
  C   C13       1.0  0.521305936867487  0.35861385876523844  0.44322874221079034  1.0000
  C   C14       1.0  0.47869406330002756  0.35861385876523844  0.056771257685594094  1.0000
  C   C15       1.0  0.021305937037958265  0.8586138598750178  0.44322874235255627  1.0000
  C   C16       1.0  0.9786940632073068  0.8586138598750178  0.05677125787848601  1.0000
  C   C17       1.0  0.41999572653973716  0.8317486936579962  0.5746630273803041  1.0000
  C   C18       1.0  0.5800042738200751  0.8317486936579962  0.9253369725411613  1.0000
  C   C19       1.0  0.9199957263692659  0.3317486945202359  0.5746630272385381  1.0000
  C   C20       1.0  0.08000427399054641  0.3317486945202359  0.9253369726829273  1.0000
  C   C21       1.0  0.5800042741362345  0.1682513065895434  0.4253369726959967  1.0000
  C   C22       1.0  0.41999572610903046  0.1682513065895434  0.07466302753504563  1.0000
  C   C23       1.0  0.08000427348208936  0.6682513057273037  0.4253369725030109  1.0000
  C   C24       1.0  0.9199957259385594  0.6682513057273037  0.07466302739327971  1.0000
  C   C25       1.0  0.3449557600087942  0.9460088328009031  0.504778287948028  1.0000
  C   C26       1.0  0.6550442396041524  0.9460088328009031  0.9952217119733435  1.0000
  C   C27       1.0  0.8449557598383229  0.4460088316911237  0.5047782878062622  1.0000
  C   C28       1.0  0.15504423977462348  0.4460088316911237  0.9952217121151095  1.0000
  C   C29       1.0  0.6550442399203115  0.0539911674466366  0.4952217121281789  1.0000
  C   C30       1.0  0.34495576032495345  0.0539911674466366  0.004778288102863381  1.0000
  C   C31       1.0  0.15504424001303233  0.553991168556416  0.49522171193528697  1.0000
  C   C32       1.0  0.8449557601544824  0.553991168556416  0.004778287961097456  1.0000
  C   C33       1.0  0.4008282166181059  0.7608125484624942  0.48411340746371945  1.0000
  C   C34       1.0  0.5991717835494087  0.7608125484624942  0.015886592432664968  1.0000
  C   C35       1.0  0.9008282164476347  0.260812547352715  0.4841134073219535  1.0000
  C   C36       1.0  0.09917178371987989  0.260812547352715  0.015886592574430893  1.0000
  C   C37       1.0  0.5991717833109999  0.23918745178504539  0.5158865926124875  1.0000
  C   C38       1.0  0.4008282163019466  0.23918745178504539  0.9841134073088841  1.0000
  C   C39       1.0  0.09917178340372061  0.7391874528948247  0.5158865924195956  1.0000
  C   C40       1.0  0.9008282162092258  0.7391874528948247  0.9841134075017761  1.0000
  C   C41       1.0  0.25030121280236917  0.5822224588421024  0.6544421750656981  1.0000
  C   C42       1.0  0.7496987868883278  0.5822224588421024  0.8455578251903313  1.0000
  C   C43       1.0  0.7503012126318981  0.08222245970434212  0.6544421749239322  1.0000
  C   C44       1.0  0.24969878698104853  0.08222245970434212  0.8455578249974395  1.0000
  C   C45       1.0  0.7496987871267365  0.41777753943341817  0.3455578250105088  1.0000
  C   C46       1.0  0.25030121304077807  0.41777753943341817  0.15444217488587564  1.0000
  C   C47       1.0  0.2496987872972078  0.9177775405431975  0.34555782515227473  1.0000
  C   C48       1.0  0.7503012129480572  0.9177775405431975  0.15444217507876756  1.0000
  C   C49       1.0  0.11634218851526547  0.8551308857865192  0.6830733382406007  1.0000
  C   C50       1.0  0.8836578118445468  0.8551308857865192  0.8169266616808646  1.0000
  C   C51       1.0  0.6163421884225446  0.3551308846767398  0.6830733384334926  1.0000
  C   C52       1.0  0.38365781201501803  0.3551308846767398  0.8169266618226305  1.0000
  C   C53       1.0  0.8836578114138403  0.1448691144610205  0.3169266618356062  1.0000
  C   C54       1.0  0.11634218808455887  0.1448691144610205  0.18307333839534232  1.0000
  C   C55       1.0  0.38365781150656103  0.6448691155707998  0.3169266616427143  1.0000
  C   C56       1.0  0.6163421879140877  0.6448691155707998  0.18307333825357638  1.0000
  C   C57       1.0  0.20985971470156833  0.9172100644600638  0.7037167525643727  1.0000
  C   C58       1.0  0.7901402849113781  0.9172100644600638  0.7962832473569988  1.0000
  C   C59       1.0  0.7098597145310972  0.41721006532230337  0.7037167524226069  1.0000
  C   C60       1.0  0.29014028508184936  0.41721006532230337  0.7962832474987648  1.0000
  C   C61       1.0  0.7901402852275374  0.08278993578747595  0.29628324751183416  1.0000
  C   C62       1.0  0.20985971501772757  0.08278993578747595  0.2037167527192081  1.0000
  C   C63       1.0  0.2901402853202582  0.5827899349252363  0.29628324731894223  1.0000
  C   C64       1.0  0.7098597148472564  0.5827899349252363  0.2037167525774422  1.0000
  C   C65       1.0  0.2861880478453972  0.7604530493939684  0.6875045603558387  1.0000
  C   C66       1.0  0.7138119525921657  0.7604530493939684  0.8124954399002846  1.0000
  C   C67       1.0  0.7861880476749259  0.26045304828418897  0.6875045602140727  1.0000
  C   C68       1.0  0.2138119519380205  0.26045304828418897  0.8124954397072989  1.0000
  C   C69       1.0  0.7138119520837085  0.2395469508535713  0.31249543972036836  1.0000
  C   C70       1.0  0.286188048083806  0.2395469508535713  0.18750456017601608  1.0000
  C   C71       1.0  0.2138119522541798  0.7395469519633506  0.3124954398621343  1.0000
  C   C72       1.0  0.7861880479910852  0.7395469519633506  0.18750456036890797  1.0000
  C   C73       1.0  0.30491848142738176  0.39118749353481785  0.6294274671299322  1.0000
  C   C74       1.0  0.695081519010181  0.39118749353481785  0.870572533126191  1.0000
  C   C75       1.0  0.8049184812569107  0.8911874946445972  0.6294274669881663  1.0000
  C   C76       1.0  0.1950815183560359  0.8911874946445972  0.8705725329332052  1.0000
  C   C77       1.0  0.695081518501724  0.6088125067127218  0.3705725329462747  1.0000
  C   C78       1.0  0.30491848091892476  0.6088125067127218  0.129427466950016  1.0000
  C   C79       1.0  0.19508151867219517  0.10881250560294246  0.3705725330880406  1.0000
  C   C80       1.0  0.8049184815730698  0.10881250560294246  0.12942746714300168  1.0000
  N   N1        1.0  0.3537300328109864  0.9807690225468448  0.5492805391383939  1.0000
  N   N2        1.0  0.64626996680196  0.9807690225468448  0.9507194607829778  1.0000
  N   N3        1.0  0.8537300326405153  0.48076902340908456  0.549280538996628  1.0000
  N   N4        1.0  0.1462699669724312  0.48076902340908456  0.9507194609247436  1.0000
  N   N5        1.0  0.6462699671181193  0.019230975728675746  0.450719460937813  1.0000
  N   N6        1.0  0.3537300330493954  0.019230975728675746  0.049280538958571436  1.0000
  N   N7        1.0  0.14626996728859046  0.5192309768384551  0.45071946107957894  1.0000
  N   N8        1.0  0.8537300329566746  0.5192309768384551  0.04928053915146337  1.0000
  O   O1        1.0  0.2475558569288253  0.286077562115124  0.5947862413905117  1.0000
  O   O2        1.0  0.7524441426841212  0.286077562115124  0.90521375853086  1.0000
  O   O3        1.0  0.7475558568361045  0.7860775612528842  0.5947862415834037  1.0000
  O   O4        1.0  0.2524441428545924  0.7860775612528842  0.9052137586726259  1.0000
  O   O5        1.0  0.7524441430002804  0.7139224381324156  0.40521375868569526  1.0000
  O   O6        1.0  0.24755585724498455  0.7139224381324156  0.09478624154534704  1.0000
  O   O7        1.0  0.2524441430930012  0.21392243899465538  0.40521375849280333  1.0000
  O   O8        1.0  0.7475558570745134  0.21392243899465538  0.0947862414035811  1.0000
  O   O9        1.0  0.394443202852178  0.3359362335385317  0.6390551156965528  1.0000
  O   O10       1.0  0.6055567975076344  0.3359362335385317  0.8609448842249127  1.0000
  O   O11       1.0  0.8944432027594571  0.835936232676292  0.6390551158894446  1.0000
  O   O12       1.0  0.10555679760035516  0.835936232676292  0.8609448840320206  1.0000
  O   O13       1.0  0.6055567977460433  0.6640637667090079  0.3609448840450901  1.0000
  O   O14       1.0  0.39444320242147135  0.6640637667090079  0.13905511585129432  1.0000
  O   O15       1.0  0.10555679716964855  0.16406376757124763  0.36094488418676224  1.0000
  O   O16       1.0  0.8944432022510002  0.16406376757124763  0.13905511570952842  1.0000
  S   S1        1.0  0.1212408065682216  0.6118310111599153  0.6440849191100546  1.0000
  S   S2        1.0  0.8787591937915908  0.6118310111599153  0.8559150808114108  1.0000
  S   S3        1.0  0.6212408063977504  0.11183101005013604  0.6440849189682887  1.0000
  S   S4        1.0  0.3787591939620619  0.11183101005013604  0.8559150809531767  1.0000
  S   S5        1.0  0.8787591933608841  0.38816898908762426  0.3559150809661523  1.0000
  S   S6        1.0  0.1212408060597646  0.38816898908762426  0.1440849189301383  1.0000
  S   S7        1.0  0.3787591934536049  0.8881689882253846  0.35591508077326045  1.0000
  S   S8        1.0  0.6212408067139096  0.8881689882253846  0.144084919123124  1.0000
  Cl  Cl1       1.0  0.40979300195287627  0.7998687520773211  0.7078732497718029  1.0000
  Cl  Cl2       1.0  0.5902069976600701  0.7998687520773211  0.7921267501495688  1.0000
  Cl  Cl3       1.0  0.9097930025292711  0.2998687509675417  0.7078732496301308  1.0000
  Cl  Cl4       1.0  0.09020699783054137  0.2998687509675417  0.7921267502913347  1.0000
  Cl  Cl5       1.0  0.5902069979762294  0.2001312481702186  0.2921267503044041  1.0000
  Cl  Cl6       1.0  0.4097930022690356  0.2001312481702186  0.20787324992663822  1.0000
  Cl  Cl7       1.0  0.09020699806895022  0.7001312492799979  0.2921267501115122  1.0000
  Cl  Cl8       1.0  0.9097930020985644  0.7001312492799979  0.20787324978487226  1.0000
