data_image0
_chemical_formula_structural       H44C44N16O16F16
_chemical_formula_sum              "H44 C44 N16 O16 F16"
_cell_length_a       9.771561563738793
_cell_length_b       13.224696767855574
_cell_length_c       11.222285922400923
_cell_angle_alpha    90.0
_cell_angle_beta     113.1931083358185
_cell_angle_gamma    90.0

_space_group_name_H-M_alt    "P 1"
_space_group_IT_number       1

loop_
  _space_group_symop_operation_xyz
  'x, y, z'

loop_
  _atom_site_type_symbol
  _atom_site_label
  _atom_site_symmetry_multiplicity
  _atom_site_fract_x
  _atom_site_fract_y
  _atom_site_fract_z
  _atom_site_occupancy
  H   H1        1.0  0.46204440527438534  0.2145808981342831  0.2331179875166729  1.0000
  H   H2        1.0  0.5379555942561552  0.7145808978372792  0.2668820128896441  1.0000
  H   H3        1.0  0.5379555945003007  0.78541910202787  0.766882012324093  1.0000
  H   H4        1.0  0.4620444055228345  0.28541910232487394  0.7331179878436751  1.0000
  H   H5        1.0  0.26115436075359744  0.17042707969518672  0.5778663375716602  1.0000
  H   H6        1.0  0.7388456392652339  0.6704270793981828  0.9221336617035547  1.0000
  H   H7        1.0  0.7388456401344364  0.8295729204669665  0.4221336626474506  1.0000
  H   H8        1.0  0.261154360509452  0.3295729207639704  0.07786633813721126  1.0000
  H   H9        1.0  0.1174225946101151  0.08064958756501962  0.5632746960853755  1.0000
  H   H10       1.0  0.8825774054130201  0.5806495872680157  0.9367253040823927  1.0000
  H   H11       1.0  0.8825774051645708  0.9193504125971336  0.4367253037553905  1.0000
  H   H12       1.0  0.1174225943616658  0.41935041289413744  0.06327469575837329  1.0000
  H   H13       1.0  0.09654521913936007  0.16148127306712415  0.4307806285737543  1.0000
  H   H14       1.0  0.9034547803868767  0.6614812727701203  0.0692193709400095  1.0000
  H   H15       1.0  0.9034547806353259  0.838518727095029  0.5692193712670116  1.0000
  H   H16       1.0  0.09654521938780934  0.33851872663587196  0.9307806289007564  1.0000
  H   H17       1.0  0.22872204404059598  0.7259659876161213  0.3524532007930826  1.0000
  H   H18       1.0  0.7712779565989886  0.2259659871569643  0.14754679909902593  1.0000
  H   H19       1.0  0.7712779568474379  0.27403401254603177  0.6475467994260281  1.0000
  H   H20       1.0  0.22872204317569728  0.7740340122490279  0.85245320074174  1.0000
  H   H21       1.0  0.20591281110002574  0.756322191395083  0.49964058449612797  1.0000
  H   H22       1.0  0.7940871895395589  0.256322190935926  0.0003594153959806124  1.0000
  H   H23       1.0  0.7940871897880081  0.24367780876707007  0.5003594157229828  1.0000
  H   H24       1.0  0.20591281023512703  0.7436778092262272  0.9996405844447854  1.0000
  H   H25       1.0  0.3868065308245769  0.7275959403007375  0.5030957820084525  1.0000
  H   H26       1.0  0.6131934691985583  0.2275959405977414  0.9969042181593156  1.0000
  H   H27       1.0  0.613193468950109  0.27240405986141564  0.4969042178323133  1.0000
  H   H28       1.0  0.38680653168947565  0.7724040595644118  0.003095782059795143  1.0000
  H   H29       1.0  0.5169224930194215  0.07058098846309924  0.10856331010957085  1.0000
  H   H30       1.0  0.4830775065068151  0.5705809889222563  0.39143668940419296  1.0000
  H   H31       1.0  0.4830775067552643  0.9294190109428929  0.8914366897311952  1.0000
  H   H32       1.0  0.5169224932678709  0.42941901123989684  0.6085633104365731  1.0000
  H   H33       1.0  0.4849106814701364  0.943132158637954  0.1455832473502324  1.0000
  H   H34       1.0  0.5150893191694482  0.44313215817879686  0.3544167525418761  1.0000
  H   H35       1.0  0.5150893183045496  0.056867841524199186  0.8544167524905335  1.0000
  H   H36       1.0  0.4849106817185856  0.5568678412271952  0.6455832476772345  1.0000
  H   H37       1.0  0.6481997958859591  0.009458242574153366  0.2497916573999757  1.0000
  H   H38       1.0  0.3518002047579293  0.5094582422771494  0.2502083433846861  1.0000
  H   H39       1.0  0.3518002050020748  0.9905417575879998  0.7502083428191351  1.0000
  H   H40       1.0  0.6481997950167566  0.4905417578850037  0.7497916564560798  1.0000
  H   H41       1.0  0.3082318052696972  0.2575065553319454  0.38362484888176335  1.0000
  H   H42       1.0  0.6917681942565393  0.7575065550349415  0.11637515063200037  1.0000
  H   H43       1.0  0.6917681945049887  0.7424934448302078  0.6163751509590025  1.0000
  H   H44       1.0  0.30823180551814644  0.24249344437105075  0.8836248492087655  1.0000
  C   C1        1.0  0.4222108680376322  0.15326433230035144  0.2756466815430957  1.0000
  C   C2        1.0  0.5777891326019525  0.6532643320033474  0.22435331834901281  1.0000
  C   C3        1.0  0.5777891317370537  0.8467356678618018  0.7243533182976701  1.0000
  C   C4        1.0  0.4222108671727335  0.3467356681588057  0.7756466814917531  1.0000
  C   C5        1.0  0.32182028623231285  0.06932605912208485  0.3860334648481088  1.0000
  C   C6        1.0  0.6781797132939237  0.5693260588250809  0.1139665346656549  1.0000
  C   C7        1.0  0.678179713542373  0.9306739410400683  0.6139665349926571  1.0000
  C   C8        1.0  0.3218202864807621  0.43067394058091124  0.8860334651751111  1.0000
  C   C9        1.0  0.23655588464715027  0.9399624663012731  0.48817116144683004  1.0000
  C   C10       1.0  0.7634441159967381  0.43996246659827704  0.011828839337831716  1.0000
  C   C11       1.0  0.7634441151275356  0.06003753386088005  0.5118288383939359  1.0000
  C   C12       1.0  0.2365558848912957  0.5600375335638761  0.988171160881279  1.0000
  C   C13       1.0  0.37772292239157884  0.8932397163701082  0.35074718318222375  1.0000
  C   C14       1.0  0.6222770782480058  0.39323971666711216  0.1492528167098848  1.0000
  C   C15       1.0  0.622277077383107  0.1067602837920449  0.6492528166585422  1.0000
  C   C16       1.0  0.37772292264002816  0.606760283495041  0.8507471835092261  1.0000
  C   C17       1.0  0.3848242524993423  0.9992562976657825  0.33096162152830894  1.0000
  C   C18       1.0  0.6151757481402423  0.49925629796278637  0.16903837836379967  1.0000
  C   C19       1.0  0.6151757472753436  0.0007437017402097163  0.669038378312457  1.0000
  C   C20       1.0  0.38482425274779153  0.5007437021993668  0.8309616218553112  1.0000
  C   C21       1.0  0.17702255099995287  0.11910393921685432  0.5122710199682642  1.0000
  C   C22       1.0  0.8229774490231823  0.6191039389198505  0.987728980199504  1.0000
  C   C23       1.0  0.8229774498880811  0.8808960609452989  0.4877289802508466  1.0000
  C   C24       1.0  0.17702255075150355  0.38089606124230274  0.012271019641261973  1.0000
  C   C25       1.0  0.2787326439442283  0.7627647406266913  0.44728722368656404  1.0000
  C   C26       1.0  0.72126735669966  0.26276474016753426  0.052712777098097796  1.0000
  C   C27       1.0  0.7212673569481093  0.2372352595354618  0.5527127774250999  1.0000
  C   C28       1.0  0.2787326430750258  0.7372352592384579  0.9472872227426681  1.0000
  C   C29       1.0  0.5301115060230714  0.016706482869007652  0.18624066960250016  1.0000
  C   C30       1.0  0.4698884935031651  0.5167064825720038  0.31375932991126354  1.0000
  C   C31       1.0  0.4698884937516144  0.9832935172931455  0.8137593302382657  1.0000
  C   C32       1.0  0.5301115062715208  0.48329351759014944  0.6862406699295024  1.0000
  C   C33       1.0  0.14941262208734432  0.36479888232494306  0.337982463295328  1.0000
  C   C34       1.0  0.8505873785522402  0.8647988820279391  0.16201753659678053  1.0000
  C   C35       1.0  0.8505873776873416  0.6352011178372101  0.6620175365454379  1.0000
  C   C36       1.0  0.14941262233579364  0.13520111737805304  0.8379824636223302  1.0000
  C   C37       1.0  0.1068197137568921  0.46817646020052905  0.3814423780917948  1.0000
  C   C38       1.0  0.8931802857693445  0.9681764599035252  0.11855762142196898  1.0000
  C   C39       1.0  0.8931802860177939  0.5318235399616241  0.6185576217489711  1.0000
  C   C40       1.0  0.10681971400534139  0.03182354025862804  0.8814423784187969  1.0000
  C   C41       1.0  0.021550125857386762  0.45130162942615304  0.47192847479507677  1.0000
  C   C42       1.0  0.9784498747865017  0.9513016298853102  0.028071525989585032  1.0000
  C   C43       1.0  0.9784498739172992  0.5486983699798391  0.5280715250456892  1.0000
  C   C44       1.0  0.021550126101532226  0.04869837027684303  0.9719284742295258  1.0000
  N   N1        1.0  0.34622856084990605  0.16473990354890175  0.3522097573504312  1.0000
  N   N2        1.0  0.6537714386763306  0.6647399040080588  0.14779024216333259  1.0000
  N   N3        1.0  0.65377143892478  0.8352600958570904  0.6477902424903348  1.0000
  N   N4        1.0  0.3462285610983553  0.33526009615409436  0.8522097576774335  1.0000
  N   N5        1.0  0.4476378822860717  0.05505109589881758  0.26047287645526984  1.0000
  N   N6        1.0  0.5523621172444687  0.5550510963579747  0.23952712395104714  1.0000
  N   N7        1.0  0.5523621174886143  0.9449489042633356  0.7395271233854961  1.0000
  N   N8        1.0  0.44763788253452097  0.44494890380417845  0.760472876782272  1.0000
  N   N9        1.0  0.29886758647197614  0.8704198139332121  0.4284687885739316  1.0000
  N   N10       1.0  0.7011324141676084  0.37041981347405506  0.07153121131817694  1.0000
  N   N11       1.0  0.7011324133027097  0.12958018622894105  0.5715312112668344  1.0000
  N   N12       1.0  0.29886758672042546  0.6295801859319371  0.9284687889009338  1.0000
  N   N13       1.0  0.2490615407220111  0.04236028620041006  0.4628090130964035  1.0000
  N   N14       1.0  0.7509384588042255  0.5423602859034061  0.03719098641736026  1.0000
  N   N15       1.0  0.7509384590526749  0.9576397139617432  0.5371909867443625  1.0000
  N   N16       1.0  0.24906154097046038  0.457639713502586  0.9628090134234056  1.0000
  O   O1        1.0  0.4333548403736847  0.8253925251830173  0.3075159875206727  1.0000
  O   O2        1.0  0.5666451602702036  0.3253925254800213  0.1924840132639891  1.0000
  O   O3        1.0  0.5666451605143492  0.1746074742229748  0.692484012698438  1.0000
  O   O4        1.0  0.4333548395044822  0.6746074746821319  0.8075159865767769  1.0000
  O   O5        1.0  0.17645915253879443  0.9125119193153958  0.560713420229008  1.0000
  O   O6        1.0  0.8235408474843408  0.4125119196123997  0.9392865799387601  1.0000
  O   O7        1.0  0.8235408472358915  0.08748808009059642  0.4392865796117579  1.0000
  O   O8        1.0  0.17645915229464898  0.5874880805497535  0.060713420794559166  1.0000
  O   O9        1.0  0.2840678920267157  0.33649669010305727  0.41213209945492185  1.0000
  O   O10       1.0  0.7159321086128689  0.8364966905622143  0.08786790043718667  1.0000
  O   O11       1.0  0.7159321088613182  0.663503309302935  0.5878679007641889  1.0000
  O   O12       1.0  0.28406789116181697  0.1635033095999388  0.9121320994035792  1.0000
  O   O13       1.0  0.05691319506742644  0.3209028142191689  0.2448729976483008  1.0000
  O   O14       1.0  0.943086804463114  0.8209028139221649  0.2551270027580162  1.0000
  O   O15       1.0  0.9430868047072595  0.6790971859429843  0.7551270021924652  1.0000
  O   O16       1.0  0.05691319531157191  0.17909718623998824  0.7448729970827497  1.0000
  F   F1        1.0  0.23139923132151946  0.5257311318395841  0.44587500244535155  1.0000
  F   F2        1.0  0.7686007693180651  0.025731131380426993  0.05412499744675696  1.0000
  F   F3        1.0  0.7686007695665145  0.4742688683225691  0.5541249977737591  1.0000
  F   F4        1.0  0.23139923045662075  0.9742688680255651  0.945875002394009  1.0000
  F   F5        1.0  0.017855840926931207  0.5215130230255061  0.27463427591514966  1.0000
  F   F6        1.0  0.9821441585993055  0.02151302256634903  0.22536572359861415  1.0000
  F   F7        1.0  0.9821441588477549  0.478486977136647  0.7253657239256164  1.0000
  F   F8        1.0  0.01785584117538049  0.9784869768396433  0.7746342762421518  1.0000
  F   F9        1.0  0.10909640797682621  0.39192955657012496  0.5734669774013068  1.0000
  F   F10       1.0  0.890903592046309  0.891929557029282  0.9265330227664613  1.0000
  F   F11       1.0  0.8909035917978596  0.6080704428358672  0.42653302243945906  1.0000
  F   F12       1.0  0.10909640884172492  0.10807044313287109  0.07346697745264946  1.0000
  F   F13       1.0  0.8943043832013546  0.3985349435618575  0.4027483189905706  1.0000
  F   F14       1.0  0.1056956174425338  0.8985349432648536  0.09725168179409116  1.0000
  F   F15       1.0  0.10569561657333128  0.6014650566002957  0.5972516808501952  1.0000
  F   F16       1.0  0.8943043834498039  0.1014650561411386  0.9027483193175729  1.0000
