data_image0
_chemical_formula_structural       H40C56N8O16Cl16
_chemical_formula_sum              "H40 C56 N8 O16 Cl16"
_cell_length_a       8.665673795293072
_cell_length_b       13.782688946301324
_cell_length_c       15.328966164888342
_cell_angle_alpha    69.42493597075944
_cell_angle_beta     75.46815877378967
_cell_angle_gamma    72.55641648448406

_space_group_name_H-M_alt    "P 1"
_space_group_IT_number       1

loop_
  _space_group_symop_operation_xyz
  'x, y, z'

loop_
  _atom_site_type_symbol
  _atom_site_label
  _atom_site_symmetry_multiplicity
  _atom_site_fract_x
  _atom_site_fract_y
  _atom_site_fract_z
  _atom_site_occupancy
  H   H1        1.0  0.9084579774439147  0.25335160192794937  0.28112409021928936  1.0000
  H   H2        1.0  0.09154202279339184  0.746648397730483  0.7188759100105592  1.0000
  H   H3        1.0  0.5533154938999691  0.32469278364639914  0.18333487912527655  1.0000
  H   H4        1.0  0.4466845053844814  0.675307216252417  0.8166651203972373  1.0000
  H   H5        1.0  0.3573848193791012  0.089755459719511  0.711748841798186  1.0000
  H   H6        1.0  0.6426151808582052  0.9102445399389215  0.2882511584316626  1.0000
  H   H7        1.0  0.491072774012159  0.003083466359171966  0.5851937472135815  1.0000
  H   H8        1.0  0.5089272264264502  0.9969165335382512  0.41480625231001733  1.0000
  H   H9        1.0  0.6901711838912451  0.09269325924440233  0.44888085933547306  1.0000
  H   H10       1.0  0.3098288163460612  0.9073067404140304  0.5511191408943755  1.0000
  H   H11       1.0  0.33562222047939866  0.35363431550273455  0.6987604602291533  1.0000
  H   H12       1.0  0.6643777793967063  0.6463656849160293  0.30123954000125847  1.0000
  H   H13       1.0  0.49973174112371915  0.2760461234294134  0.7604686815068077  1.0000
  H   H14       1.0  0.5002682591135874  0.7239538762290192  0.23953131872304076  1.0000
  H   H15       1.0  0.3215272483790044  0.22748891032180987  0.7828905767992155  1.0000
  H   H16       1.0  0.6784727518583021  0.7725110893366226  0.21710942343063305  1.0000
  H   H17       1.0  0.7417298791528576  0.2494729215821455  0.4482443185222611  1.0000
  H   H18       1.0  0.25827012072324745  0.7505270788366184  0.5517556817081505  1.0000
  H   H19       1.0  0.7092839018262439  0.3868433857301103  0.5051771196605994  1.0000
  H   H20       1.0  0.2907160984110628  0.6131566139283222  0.49482288056924906  1.0000
  H   H21       1.0  0.5739157310813362  0.3978473889188154  0.6101676282745754  1.0000
  H   H22       1.0  0.42608426899607144  0.602152611738939  0.38983237124958675  1.0000
  H   H23       1.0  0.9673512949328025  0.14414072501564465  0.6084335364564746  1.0000
  H   H24       1.0  0.032648703789144175  0.8558592754045122  0.3915664637728519  1.0000
  H   H25       1.0  0.09578730826835648  0.07629028534248818  0.4695054011620664  1.0000
  H   H26       1.0  0.9042126919689502  0.9237097143159444  0.5304945990677821  1.0000
  H   H27       1.0  0.29262764695782173  0.17348254179092068  0.34131208678538993  1.0000
  H   H28       1.0  0.7073723517641248  0.8265174586292362  0.6586879134439368  1.0000
  H   H29       1.0  0.9457954946890266  0.4058447025485118  0.6128771512867314  1.0000
  H   H30       1.0  0.05420450554827992  0.5941552971099207  0.38712284894311716  1.0000
  H   H31       1.0  0.09494870415869364  0.3146722506118759  0.6803495677073166  1.0000
  H   H32       1.0  0.9050512960786128  0.6853277490465567  0.319650432522532  1.0000
  H   H33       1.0  0.9114009668967583  0.2793343735720679  0.685052117924492  1.0000
  H   H34       1.0  0.08859903334054804  0.7206656260863648  0.3149478823053565  1.0000
  H   H35       1.0  0.3445629079710502  0.32260106234871655  0.35416450098437635  1.0000
  H   H36       1.0  0.6554370921063575  0.6773989383090376  0.6458354985397857  1.0000
  H   H37       1.0  0.32706160405432605  0.4422428727723902  0.42831240410991317  1.0000
  H   H38       1.0  0.672938395028822  0.5577571268874354  0.5716875961188502  1.0000
  H   H39       1.0  0.19795127150198036  0.4421389571907486  0.5381340889881198  1.0000
  H   H40       1.0  0.8020487283741248  0.5578610432280153  0.46186591124229187  1.0000
  C   C1        1.0  0.8209891150691946  0.48015179858954915  0.23321015352742308  1.0000
  C   C2        1.0  0.17901088365275203  0.5198482018306078  0.7667898467019035  1.0000
  C   C3        1.0  0.6733546963271195  0.5001102814568265  0.20059967911192997  1.0000
  C   C4        1.0  0.32664530375028805  0.49988971920092773  0.7994003204122322  1.0000
  C   C5        1.0  0.6559525723889876  0.5655246298052565  0.10848788490600365  1.0000
  C   C6        1.0  0.3440474274871176  0.4344753706135073  0.8915121153244081  1.0000
  C   C7        1.0  0.7864967377919552  0.608630195323717  0.048045958849011104  1.0000
  C   C8        1.0  0.21350326244535137  0.3913698043347155  0.9519540413808374  1.0000
  C   C9        1.0  0.9368741155685104  0.5844642678664319  0.07934238896521659  1.0000
  C   C10       1.0  0.06312588450889714  0.41553573279132255  0.9206576105589455  1.0000
  C   C11       1.0  0.9520341834636314  0.5209988416732987  0.17280523058504388  1.0000
  C   C12       1.0  0.04796581677367498  0.4790011579851338  0.8271947696448047  1.0000
  C   C13       1.0  0.8350916962326921  0.41345064728183595  0.33438967279856674  1.0000
  C   C14       1.0  0.16490830420591687  0.586549352615587  0.6656103267250321  1.0000
  C   C15       1.0  0.5317822104188391  0.4574679913526108  0.26865800561150566  1.0000
  C   C16       1.0  0.46821778945726605  0.542532009066153  0.731341994618906  1.0000
  C   C17       1.0  0.9248352084748368  0.0546267873217006  0.20748295569301017  1.0000
  C   C18       1.0  0.07516479196377206  0.9453732125757224  0.7925170438305887  1.0000
  C   C19       1.0  0.7748711274019214  0.08926703094417904  0.17402319850395392  1.0000
  C   C20       1.0  0.22512887267548606  0.9107329697135752  0.8259768010202083  1.0000
  C   C21       1.0  0.740796848600148  0.03536706736652312  0.12158114116849239  1.0000
  C   C22       1.0  0.2592031516371584  0.9646329322919095  0.8784188590613562  1.0000
  C   C23       1.0  0.8581130957153176  0.946970178118554  0.10096962534059553  1.0000
  C   C24       1.0  0.14188690472329138  0.05302982177886886  0.8990303741830034  1.0000
  C   C25       1.0  0.009798887937656783  0.9132210723621724  0.13317408734045066  1.0000
  C   C26       1.0  0.9902011122996495  0.08677892729626031  0.8668259128893978  1.0000
  C   C27       1.0  0.04240354066133468  0.9678157945131629  0.18621278279713246  1.0000
  C   C28       1.0  0.9575964592147707  0.03218420590560085  0.8137872174332792  1.0000
  C   C29       1.0  0.9479972682544976  0.10861342747426454  0.27180872285923685  1.0000
  C   C30       1.0  0.05200273162160763  0.8913865729444994  0.7281912773711748  1.0000
  C   C31       1.0  0.6459049609347117  0.17474617994659186  0.20896618644439527  1.0000
  C   C32       1.0  0.35409503914269586  0.8252538207111624  0.7910338130797668  1.0000
  C   C33       1.0  0.5898987519120691  0.26465152959957405  0.5733738660434218  1.0000
  C   C34       1.0  0.4101012485265398  0.735348470297849  0.4266261334801772  1.0000
  C   C35       1.0  0.4777132304273738  0.21834073330689682  0.6515717216236271  1.0000
  C   C36       1.0  0.5222867700112352  0.7816592665905263  0.3484282778999717  1.0000
  C   C37       1.0  0.4436161592942411  0.12596922780863576  0.6529278252886415  1.0000
  C   C38       1.0  0.5563838394277055  0.8740307726115213  0.34707217494068515  1.0000
  C   C39       1.0  0.5176966659427384  0.07675434523955782  0.5812055940603182  1.0000
  C   C40       1.0  0.48230333413466914  0.9232456554181965  0.418794405463844  1.0000
  C   C41       1.0  0.6260923480647197  0.12327839393353293  0.5079510076297448  1.0000
  C   C42       1.0  0.37390765181138547  0.876721606485231  0.49204899260066687  1.0000
  C   C43       1.0  0.40432321743114025  0.27131635224766143  0.7273053636797325  1.0000
  C   C44       1.0  0.5956767828061662  0.7286836474107711  0.2726946365501159  1.0000
  C   C45       1.0  0.1961633299220435  0.32559490995634977  0.48358108563293056  1.0000
  C   C46       1.0  0.8038366699540617  0.6744050904624141  0.5164189145974811  1.0000
  C   C47       1.0  0.08346929576672729  0.2749249918599639  0.5580108223064048  1.0000
  C   C48       1.0  0.9165307044705793  0.7250750077984686  0.4419891779234438  1.0000
  C   C49       1.0  0.05172282362858092  0.1851698756119786  0.5520987529570021  1.0000
  C   C50       1.0  0.9482771762475243  0.8148301248067851  0.44790124727340963  1.0000
  C   C51       1.0  0.12503991318442137  0.14490451262158868  0.47492913674292353  1.0000
  C   C52       1.0  0.8749600870528852  0.8550954870368439  0.525070863486925  1.0000
  C   C53       1.0  0.2299735309436229  0.19724383272757712  0.40400685158033933  1.0000
  C   C54       1.0  0.770026468932482  0.8027561676911867  0.5959931486500724  1.0000
  C   C55       1.0  0.005017463311812504  0.3206768223374694  0.6381303490837912  1.0000
  C   C56       1.0  0.9949825365642927  0.6793231780812945  0.3618696511466205  1.0000
  N   N1        1.0  0.6589348418051305  0.21460403826654342  0.5055647790439675  1.0000
  N   N2        1.0  0.34106515843217605  0.7853959613918893  0.49443522118588107  1.0000
  N   N3        1.0  0.6312789391642396  0.3540370809400208  0.5641196362695009  1.0000
  N   N4        1.0  0.36872106107306685  0.6459629187184119  0.43588036396034757  1.0000
  N   N5        1.0  0.26393346720013783  0.28467451075118017  0.4097167441633002  1.0000
  N   N6        1.0  0.7360665330371685  0.7153254889072523  0.5902832560665484  1.0000
  N   N7        1.0  0.2391366784578308  0.4115126859592485  0.4825024797954184  1.0000
  N   N8        1.0  0.760863321980778  0.5884873139381745  0.5174975197281805  1.0000
  O   O1        1.0  0.8233394076227544  0.4584593157197174  0.394772592484104  1.0000
  O   O2        1.0  0.1766605910991924  0.5415406847004395  0.6052274077452225  1.0000
  O   O3        1.0  0.8520512525729504  0.3127806029040778  0.35262892831521975  1.0000
  O   O4        1.0  0.1479487475044573  0.6872193977536764  0.6473710712089424  1.0000
  O   O5        1.0  0.47711699742736147  0.4913182950707174  0.33975669395451363  1.0000
  O   O6        1.0  0.5228830026500462  0.508681705587037  0.6602433055696485  1.0000
  O   O7        1.0  0.4767334928835967  0.39012642326512265  0.25300164201468295  1.0000
  O   O8        1.0  0.5232665073537098  0.60987357639331  0.7469983582151656  1.0000
  O   O9        1.0  0.9286630506665766  0.21263043016556077  0.23184024567779196  1.0000
  O   O10       1.0  0.07133694920952853  0.7873695702532031  0.7681597545526198  1.0000
  O   O11       1.0  0.9731879121251993  0.059132281896592996  0.3529607586625293  1.0000
  O   O12       1.0  0.02681208811210707  0.9408677177618396  0.6470392415673192  1.0000
  O   O13       1.0  0.6189691527813024  0.2700737876765798  0.14683233236842744  1.0000
  O   O14       1.0  0.3810308474560041  0.7299262119818527  0.8531676678614211  1.0000
  O   O15       1.0  0.5790805521796766  0.151789798718894  0.2923002429047657  1.0000
  O   O16       1.0  0.4209194476964285  0.8482102016998698  0.707699757325646  1.0000
  Cl  Cl1       1.0  0.47329394776090034  0.5953574159662787  0.06930331503940208  1.0000
  Cl  Cl2       1.0  0.5267060509610463  0.4046425844538782  0.9306966851899245  1.0000
  Cl  Cl3       1.0  0.7646542752653825  0.6883897344999473  0.9355969524631299  1.0000
  Cl  Cl4       1.0  0.2353457249719239  0.3116102651584854  0.06440304776671861  1.0000
  Cl  Cl5       1.0  0.09814090090072165  0.6314550177854111  0.0035370690558239053  1.0000
  Cl  Cl6       1.0  0.9018590995378873  0.3685449821120121  0.996462930467775  1.0000
  Cl  Cl7       1.0  0.1347664235657581  0.4904846534581828  0.21228048220091722  1.0000
  Cl  Cl8       1.0  0.8652335766715483  0.5095153462002499  0.7877195180289313  1.0000
  Cl  Cl9       1.0  0.5526516444551031  0.0740578168149834  0.08650630190093106  1.0000
  Cl  Cl10      1.0  0.44734835598350586  0.9259421830824396  0.9134936976226679  1.0000
  Cl  Cl11      1.0  0.8164372386098442  0.8801540787679992  0.03743079752971791  1.0000
  Cl  Cl12      1.0  0.18356276047330367  0.11984592089182647  0.9625692026990454  1.0000
  Cl  Cl13      1.0  0.153090547763696  0.8062060829882379  0.10861688006308644  1.0000
  Cl  Cl14      1.0  0.8469094515207546  0.19379391691057826  0.8913831194594273  1.0000
  Cl  Cl15      1.0  0.2300792647109351  0.9299194984057751  0.2220788819067501  1.0000
  Cl  Cl16      1.0  0.7699207355263714  0.07008050125265732  0.7779211183230985  1.0000
