data_image0
_chemical_formula_structural       H46C56N2O12S34Cl2Br4
_chemical_formula_sum              "H46 C56 N2 O12 S34 Cl2 Br4"
_cell_length_a       8.538731980261698
_cell_length_b       14.37299344306678
_cell_length_c       17.347603883985133
_cell_angle_alpha    78.87939676237701
_cell_angle_beta     86.9622295940169
_cell_angle_gamma    74.74742194705895

_space_group_name_H-M_alt    "P 1"
_space_group_IT_number       1

loop_
  _space_group_symop_operation_xyz
  'x, y, z'

loop_
  _atom_site_type_symbol
  _atom_site_label
  _atom_site_symmetry_multiplicity
  _atom_site_fract_x
  _atom_site_fract_y
  _atom_site_fract_z
  _atom_site_occupancy
  H   H1        1.0  0.07757827097837323  0.6197399753699107  0.17254142776436812  1.0000
  H   H2        1.0  0.9224217295421601  0.38026002472542325  0.8274585727797111  1.0000
  H   H3        1.0  0.19938149936742278  0.6242877444679362  0.2509346612088454  1.0000
  H   H4        1.0  0.8006185011667576  0.37571225575505796  0.7490653387478053  1.0000
  H   H5        1.0  0.9713956614692282  0.8045963193653776  0.1482441742524373  1.0000
  H   H6        1.0  0.02860433820927054  0.19540368013753484  0.8517558257077441  1.0000
  H   H7        1.0  0.18707901147668995  0.7646560767537276  0.1376008529515744  1.0000
  H   H8        1.0  0.8129209890574904  0.23534392346926664  0.8623991470050761  1.0000
  H   H9        1.0  0.2616035812699835  0.06798864565907448  0.7157168772780187  1.0000
  H   H10       1.0  0.738396418408515  0.9320113538438379  0.2842831226821627  1.0000
  H   H11       1.0  0.31909321872313523  0.9752711537904754  0.8005320296362606  1.0000
  H   H12       1.0  0.6809067809553633  0.024728845712437084  0.19946797032392083  1.0000
  H   H13       1.0  0.4829469945195344  0.09845898297360252  0.7828946704441649  1.0000
  H   H14       1.0  0.5170530063308689  0.9015410165266639  0.21710532951951245  1.0000
  H   H15       1.0  0.611380035465854  0.9802017789377194  0.7788774056044347  1.0000
  H   H16       1.0  0.38861996389642134  0.01979822128792087  0.22112259434871986  1.0000
  H   H17       1.0  0.4737137971335593  0.4781036014783947  0.2305985199010143  1.0000
  H   H18       1.0  0.5262862022287162  0.5218963987472455  0.7694014800521403  1.0000
  H   H19       1.0  0.591983610279271  0.3813933236756254  0.30101524184149325  1.0000
  H   H20       1.0  0.40801638908300447  0.6186066765500149  0.6989847581116614  1.0000
  H   H21       1.0  0.7080595933777488  0.52821669752766  0.2641476443955288  1.0000
  H   H22       1.0  0.29194040715643166  0.4717833026953343  0.7358523555611218  1.0000
  H   H23       1.0  0.6709868233451713  0.49947729371889094  0.3676342289981565  1.0000
  H   H24       1.0  0.32901317718900897  0.5005227065041035  0.632365770958494  1.0000
  H   H25       1.0  0.6612810593455422  0.8373789471755148  0.8159884148273406  1.0000
  H   H26       1.0  0.33871894118863827  0.16262105304747942  0.1840115851293101  1.0000
  H   H27       1.0  0.7671516442488939  0.7320922160771374  0.8823429653267534  1.0000
  H   H28       1.0  0.2328483551133814  0.2679077841485029  0.11765703462640124  1.0000
  H   H29       1.0  0.8972082196464253  0.869479047655775  0.8648366708328187  1.0000
  H   H30       1.0  0.10279178088775515  0.13052095256721927  0.1351633291238319  1.0000
  H   H31       1.0  0.030718320596956377  0.7596298746294909  0.8423802819221056  1.0000
  H   H32       1.0  0.9692816787653192  0.24037012559614923  0.15761971803104907  1.0000
  H   H33       1.0  0.5978321453158674  0.1899182369781414  0.03952151118708043  1.0000
  H   H34       1.0  0.40216785404640815  0.8100817632474988  0.9604784887660742  1.0000
  H   H35       1.0  0.5806238306997727  0.09820656489374424  0.951153308066462  1.0000
  H   H36       1.0  0.4193761698344075  0.90179343532925  0.04884669189018854  1.0000
  H   H37       1.0  0.47090068716141364  0.20410513508907166  0.8820937626045926  1.0000
  H   H38       1.0  0.5290993122008619  0.7958948651365685  0.11790623734856207  1.0000
  H   H39       1.0  0.8796788793341195  0.09710513585349359  0.9742817286702923  1.0000
  H   H40       1.0  0.12032112151628392  0.9028948636467727  0.02571827129338531  1.0000
  H   H41       1.0  0.8971334079303457  0.1798712796302857  0.03566990491348045  1.0000
  H   H42       1.0  0.10286659143192958  0.8201287205953546  0.9643300950396742  1.0000
  H   H43       1.0  0.0069105336102549975  0.05423287017793537  0.058706024565917045  1.0000
  H   H44       1.0  0.9930894669239254  0.9457671300450589  0.9412939753907336  1.0000
  H   H45       1.0  0.7477945289205422  0.019249288419404965  0.08027936225503328  1.0000
  H   H46       1.0  0.25220547161363815  0.9807507118035894  0.9197206377016174  1.0000
  C   C1        1.0  0.08552185197546594  0.7661386255786206  0.17940874968776913  1.0000
  C   C2        1.0  0.9144781473868095  0.2338613746470198  0.8205912502653855  1.0000
  C   C3        1.0  0.08743386888569257  0.6617216092735928  0.21788079865495533  1.0000
  C   C4        1.0  0.912566130792806  0.33827839022931966  0.782119201305226  1.0000
  C   C5        1.0  0.9990809196257622  0.811044933188955  0.32561565123229474  1.0000
  C   C6        1.0  0.0009190797365133853  0.18895506703668524  0.6743843487208598  1.0000
  C   C7        1.0  0.9165778657988458  0.7392267543211922  0.3381824261858395  1.0000
  C   C8        1.0  0.08342213387965268  0.26077324518172024  0.661817573774342  1.0000
  C   C9        1.0  0.8251376127023715  0.8367299471787183  0.45013166189655734  1.0000
  C   C10       1.0  0.17486238664625692  0.16327005291926158  0.549868338644026  1.0000
  C   C11       1.0  0.7366454827826824  0.8790417638649157  0.5091081543339815  1.0000
  C   C12       1.0  0.2633545165795931  0.12095823636072457  0.49089184561917315  1.0000
  C   C13       1.0  0.6141732333287522  0.9934783227949296  0.6070563049732266  1.0000
  C   C14       1.0  0.3858267663497464  0.0065216767079828274  0.3929436949869548  1.0000
  C   C15       1.0  0.5331278663548822  0.921431751280876  0.6209025493742101  1.0000
  C   C16       1.0  0.4668721333099691  0.07856824809437614  0.37909745117339994  1.0000
  C   C17       1.0  0.5120499889152809  0.03883770539281963  0.7490746361022297  1.0000
  C   C18       1.0  0.4879500116188995  0.9611622948301746  0.2509253638544209  1.0000
  C   C19       1.0  0.3597373318262545  0.005985463254974806  0.7422370903343505  1.0000
  C   C20       1.0  0.640262669024149  0.9940145362452917  0.25776290962932696  1.0000
  C   C21       1.0  0.6144899240833365  0.5241268518727301  0.30950744983194306  1.0000
  C   C22       1.0  0.38551007645084373  0.4758731483502643  0.6904925501247076  1.0000
  C   C23       1.0  0.5167165504195848  0.45761123546617627  0.2915512377833885  1.0000
  C   C24       1.0  0.48328344894269076  0.542388764759464  0.7084487621697662  1.0000
  C   C25       1.0  0.3760811507970659  0.6277160621198724  0.3862062908720077  1.0000
  C   C26       1.0  0.6239188485652096  0.3722839381057679  0.613793709081147  1.0000
  C   C27       1.0  0.3125814995143565  0.5480117662242407  0.4041383607096318  1.0000
  C   C28       1.0  0.6874185013223998  0.4519882331483653  0.5958616398414742  1.0000
  C   C29       1.0  0.20936274372906455  0.650526405999085  0.5119969781256408  1.0000
  C   C30       1.0  0.7906372556332111  0.34947359422655516  0.4880030218275138  1.0000
  C   C31       1.0  0.1231890797898859  0.6891754130474057  0.5724825651557052  1.0000
  C   C32       1.0  0.8768109207442945  0.31082458717558853  0.4275174348009455  1.0000
  C   C33       1.0  0.9990122741685232  0.7955921013901046  0.6756096087378666  1.0000
  C   C34       1.0  0.0009877251937522162  0.20440789883553562  0.324390391215288  1.0000
  C   C35       1.0  0.9248007593130446  0.7206703066483316  0.687627060218661  1.0000
  C   C36       1.0  0.07519924004923076  0.2793296935773085  0.3123729397344937  1.0000
  C   C37       1.0  0.9210076807985398  0.8181387663949474  0.8236881119310557  1.0000
  C   C38       1.0  0.07899231856373573  0.18186123383069283  0.17631188802209885  1.0000
  C   C39       1.0  0.7735963995734635  0.7784931997912072  0.8245801394982334  1.0000
  C   C40       1.0  0.22640360010503496  0.22150679971170517  0.175419860461948  1.0000
  C   C41       1.0  0.34595835531631003  0.38476933696639415  0.9227149463914321  1.0000
  C   C42       1.0  0.6540416440459653  0.6152306632592462  0.07728505356172256  1.0000
  C   C43       1.0  0.2335255684002336  0.47804160016861263  0.9336009481765905  1.0000
  C   C44       1.0  0.7664744309483944  0.5219583999293674  0.06639905236399274  1.0000
  C   C45       1.0  0.24143094629806552  0.5179037399107412  0.9976226744776096  1.0000
  C   C46       1.0  0.7585690530642099  0.4820962603148991  0.0023773254755450595  1.0000
  C   C47       1.0  0.36355458864314916  0.467613078981916  0.06160305016050586  1.0000
  C   C48       1.0  0.6364454118910312  0.5323869212410782  0.9383969497961449  1.0000
  C   C49       1.0  0.45854066391570436  0.370799579315522  0.05482951270447524  1.0000
  C   C50       1.0  0.5414593354465711  0.6292004209101183  0.9451704872486794  1.0000
  C   C51       1.0  0.4457576737442757  0.3242789880536788  0.9931239156374032  1.0000
  C   C52       1.0  0.5542423267899046  0.6757210121693155  0.006876084319247362  1.0000
  C   C53       1.0  0.48718420665463735  0.16825012636672665  0.9436940317394142  1.0000
  C   C54       1.0  0.5128157941957661  0.8317498731335399  0.05630596822426313  1.0000
  C   C55       1.0  0.8916451205590237  0.1046329737499769  0.03555816962505596  1.0000
  C   C56       1.0  0.10835487880325186  0.8953670264756634  0.9644418303280987  1.0000
  N   N1        1.0  0.5249073272144864  0.23021439710868571  0.9919563233197282  1.0000
  N   N2        1.0  0.4750926733196939  0.7697856031143087  0.008043676636922566  1.0000
  O   O1        1.0  0.3607611460601027  0.3580616780315411  0.85866134558781  1.0000
  O   O2        1.0  0.6392388547903005  0.6419383214687254  0.14133865437586735  1.0000
  O   O3        1.0  0.37234579793468353  0.5095224537805968  0.11716447421772255  1.0000
  O   O4        1.0  0.6276542014275921  0.49047754644504354  0.8828355257354321  1.0000
  O   O5        1.0  0.17881052654552695  0.22912722403305633  0.9820817193571799  1.0000
  O   O6        1.0  0.8211894739886533  0.770872776189938  0.017918280599470763  1.0000
  O   O7        1.0  0.32642836632712324  0.064664721981446  0.048136606638674466  1.0000
  O   O8        1.0  0.6735716333513753  0.9353352775214664  0.9518633933215069  1.0000
  O   O9        1.0  0.25842247977604227  0.09492375875168407  0.9074671509170045  1.0000
  O   O10       1.0  0.7415775207581381  0.9050762414713104  0.09253284903964618  1.0000
  O   O11       1.0  0.7562329877711677  0.08694808665684318  0.08228690565372809  1.0000
  O   O12       1.0  0.24376701274936535  0.9130519134384908  0.9177130948903511  1.0000
  S   S1        1.0  0.12477473966204829  0.839335833705545  0.24715167333339344  1.0000
  S   S2        1.0  0.8752252597002271  0.16066416652009524  0.7528483266197612  1.0000
  S   S3        1.0  0.9134698368543466  0.6537042993182333  0.28059266763648527  1.0000
  S   S4        1.0  0.08653016250792893  0.3462957009074069  0.7194073323166694  1.0000
  S   S5        1.0  0.9732422832737853  0.884946437132907  0.3970480352931675  1.0000
  S   S6        1.0  0.02675771640471334  0.11505356237000543  0.6029519646670138  1.0000
  S   S7        1.0  0.7952084793577584  0.732988866031408  0.4224560892097137  1.0000
  S   S8        1.0  0.20479152000451725  0.26701113419423217  0.5775439107434408  1.0000
  S   S9        1.0  0.7660502678897066  0.9837372650358184  0.5354833056519342  1.0000
  S   S10       1.0  0.23394973296069674  0.01626273446444804  0.4645166943117431  1.0000
  S   S11       1.0  0.590970561335149  0.8300068959261947  0.5639354370058877  1.0000
  S   S12       1.0  0.40902943951525417  0.16999310357407188  0.4360645629577897  1.0000
  S   S13       1.0  0.5869501127435363  0.09154672374082136  0.6553603570455369  1.0000
  S   S14       1.0  0.413049886605092  0.9084532763571583  0.34463964349504644  1.0000
  S   S15       1.0  0.380716205220862  0.9065829066053477  0.6883603997725117  1.0000
  S   S16       1.0  0.6192837944576365  0.09341709289756474  0.31163960018766973  1.0000
  S   S17       1.0  0.49741008323665387  0.6507277624430762  0.30501251053926576  1.0000
  S   S18       1.0  0.5025899164418446  0.3492722370598362  0.6949874894209157  1.0000
  S   S19       1.0  0.3388093791896992  0.4513620758903188  0.35444988406689826  1.0000
  S   S20       1.0  0.6611906213444811  0.5486379243326753  0.6455501158897523  1.0000
  S   S21       1.0  0.3487935640577218  0.7033843543522363  0.45601525967474504  1.0000
  S   S22       1.0  0.6512064364764586  0.29661564587075795  0.5439847402819055  1.0000
  S   S23       1.0  0.19569898072778813  0.5391465655125313  0.48996261459149604  1.0000
  S   S24       1.0  0.8043010186344874  0.46085343471310897  0.5100373853616587  1.0000
  S   S25       1.0  0.14930057384287382  0.7929924722372332  0.6024989036414845  1.0000
  S   S26       1.0  0.8506994270075295  0.20700752726303323  0.39750109632219294  1.0000
  S   S27       1.0  0.9908626153610921  0.6306643090294489  0.6295761041812121  1.0000
  S   S28       1.0  0.00913738400118332  0.3693356911961913  0.3704238957719426  1.0000
  S   S29       1.0  0.9627462329307682  0.8891219988084306  0.7298633934094774  1.0000
  S   S30       1.0  0.03725376674773041  0.11087800069448189  0.2701366065507041  1.0000
  S   S31       1.0  0.7715709715846123  0.7002571117836311  0.7532072398281313  1.0000
  S   S32       1.0  0.22842902809388618  0.29974288771928126  0.24679276013205015  1.0000
  S   S33       1.0  0.2957605123991276  0.1363501426330354  0.974297047231299  1.0000
  S   S34       1.0  0.7042394884512758  0.8636498568672312  0.025702952732378364  1.0000
  Cl  Cl1       1.0  0.11365268473506607  0.6261269943639908  0.010619134133216926  1.0000
  Cl  Cl2       1.0  0.8863473146272094  0.3738730058616494  0.9893808658199379  1.0000
  Br  Br1       1.0  0.08064191436515739  0.5404210779013154  0.852819504136828  1.0000
  Br  Br2       1.0  0.9193580849971182  0.45957892232432485  0.14718049581632664  1.0000
  Br  Br3       1.0  0.5942154307258785  0.30070261982913526  0.14176387202359506  1.0000
  Br  Br4       1.0  0.4057845686363971  0.6992973803965049  0.8582361279295595  1.0000
