data_image0
_chemical_formula_structural       H48C156N2O12Br2
_chemical_formula_sum              "H48 C156 N2 O12 Br2"
_cell_length_a       10.129011605050918
_cell_length_b       13.009459447165673
_cell_length_c       17.249922999015823
_cell_angle_alpha    92.67610914181837
_cell_angle_beta     91.74671252058221
_cell_angle_gamma    95.47432085796844

_space_group_name_H-M_alt    "P 1"
_space_group_IT_number       1

loop_
  _space_group_symop_operation_xyz
  'x, y, z'

loop_
  _atom_site_type_symbol
  _atom_site_label
  _atom_site_symmetry_multiplicity
  _atom_site_fract_x
  _atom_site_fract_y
  _atom_site_fract_z
  _atom_site_occupancy
  H   H1        1.0  0.5079360306707279  0.9388335126955818  0.5815760302851529  1.0000
  H   H2        1.0  0.4920639691819632  0.06116648748030905  0.4184239699381807  1.0000
  H   H3        1.0  0.3121750448959692  0.983251058469768  0.6553992919926366  1.0000
  H   H4        1.0  0.6878249549567219  0.01674894170612298  0.34460070823069694  1.0000
  H   H5        1.0  0.05127400639513706  0.8251230244573161  0.47706401668866444  1.0000
  H   H6        1.0  0.948725993457554  0.17487697571857483  0.5229359835346692  1.0000
  H   H7        1.0  0.24591864177519315  0.7769509345008293  0.4054478374235004  1.0000
  H   H8        1.0  0.7540813590322538  0.22304906563232044  0.5945521622207829  1.0000
  H   H9        1.0  0.915802273774181  0.8264785108046211  0.5761512665672145  1.0000
  H   H10       1.0  0.08419772607850998  0.1735214893712698  0.42384873365611914  1.0000
  H   H11       1.0  0.9261451207009537  0.944448438896579  0.5268396707999113  1.0000
  H   H12       1.0  0.07385488010649324  0.055551561236570665  0.4731603288443718  1.0000
  H   H13       1.0  0.747210793701543  0.9608743969387084  0.6091707299497997  1.0000
  H   H14       1.0  0.25278920704414076  0.039125602465376746  0.3908292702784545  1.0000
  H   H15       1.0  0.8812182748754221  0.034387509612159035  0.6581097424674619  1.0000
  H   H16       1.0  0.11878172497726885  0.9656124905637318  0.34189025775587173  1.0000
  H   H17       1.0  0.9107063407641858  0.8847340885765076  0.7442215841865171  1.0000
  H   H18       1.0  0.0892936600758691  0.11526591159954114  0.2557784160384587  1.0000
  H   H19       1.0  0.7822717854350878  0.8098089678152949  0.6896758037515014  1.0000
  H   H20       1.0  0.21772821441760334  0.19019103236059598  0.31032419647183224  1.0000
  H   H21       1.0  0.6244012635571272  0.9423510419655692  0.7275474910866089  1.0000
  H   H22       1.0  0.3755987362955639  0.057648958210321746  0.27245250913672464  1.0000
  H   H23       1.0  0.6818796854564941  0.8718318636217001  0.804919887691996  1.0000
  H   H24       1.0  0.3181203153835608  0.12816813655434867  0.1950801125329798  1.0000
  H   H25       1.0  0.8451227651458831  0.017828267420261196  0.8484218347320317  1.0000
  H   H26       1.0  0.15487723457982872  0.9821717319407672  0.15157816491388773  1.0000
  H   H27       1.0  0.7984089504283635  0.09074574717399247  0.7692169477694225  1.0000
  H   H28       1.0  0.20159104939171973  0.9092542529589995  0.23078305187321857  1.0000
  H   H29       1.0  0.6081764251218045  0.013125632721599235  0.8934530019231078  1.0000
  H   H30       1.0  0.39182357571825055  0.9868743674544495  0.10654699830186798  1.0000
  H   H31       1.0  0.5737381375197338  0.09816672597154323  0.8169894976023986  1.0000
  H   H32       1.0  0.4262618623329574  0.9018332742043477  0.18301050262093504  1.0000
  H   H33       1.0  0.583959770540329  0.9417531356744977  0.05429800754857968  1.0000
  H   H34       1.0  0.4160402293123621  0.05824686450139315  0.945701992674754  1.0000
  H   H35       1.0  0.5557607884924628  0.8114848785111699  0.9452171159291975  1.0000
  H   H36       1.0  0.4442392123149842  0.18851512162197984  0.05478288371508559  1.0000
  H   H37       1.0  0.7543260226770961  0.736351656263435  0.8906750779489878  1.0000
  H   H38       1.0  0.24567397704861585  0.2636483430975935  0.10932492169693167  1.0000
  H   H39       1.0  0.9792166591147236  0.7943747848409727  0.9482509782930375  1.0000
  H   H40       1.0  0.02078334073796756  0.20562521533491834  0.051749021930296096  1.0000
  H   H41       1.0  0.006245586996100229  0.9249036238647411  0.05767014174786434  1.0000
  H   H42       1.0  0.993754412856591  0.07509637631114992  0.9423298584754694  1.0000
  H   H43       1.0  0.8335710678390341  0.10139888465666709  0.10716440218035245  1.0000
  H   H44       1.0  0.16642893191928587  0.8986011147472605  0.8928355980462596  1.0000
  H   H45       1.0  0.895330801725155  0.011090485337913562  0.16928204947870745  1.0000
  H   H46       1.0  0.10466919809492814  0.9889095147950784  0.8307179501639337  1.0000
  H   H47       1.0  0.7218209600895703  0.023969962731136375  0.16223952621266613  1.0000
  H   H48       1.0  0.2781790397305129  0.9760300374018557  0.837760473429975  1.0000
  C   C1        1.0  0.9120851072761516  0.29934045415106514  0.1777666125524386  1.0000
  C   C2        1.0  0.08791489257653944  0.7006595460248257  0.822233387670895  1.0000
  C   C3        1.0  0.02595269682020302  0.3742603641703051  0.19586205332327697  1.0000
  C   C4        1.0  0.974047304019852  0.6257396360057436  0.8041379469016987  1.0000
  C   C5        1.0  0.029095337678361602  0.4510778072411371  0.13723643057377694  1.0000
  C   C6        1.0  0.9709046620799584  0.5489221921627904  0.8627635696528351  1.0000
  C   C7        1.0  0.9165041788232993  0.4242805511498685  0.08341435242988528  1.0000
  C   C8        1.0  0.08349582188977647  0.5757194482113177  0.9165856472176764  1.0000
  C   C9        1.0  0.8445826315244417  0.3301070261591486  0.10825557888606098  1.0000
  C   C10       1.0  0.15541736823387833  0.6698929732447788  0.891744421340551  1.0000
  C   C11       1.0  0.7057099736055682  0.3168797510158751  0.10143274855667207  1.0000
  C   C12       1.0  0.2942900261527518  0.6831202483880522  0.8985672516699399  1.0000
  C   C13       1.0  0.6293844683776175  0.2719997603475024  0.1633716265182035  1.0000
  C   C14       1.0  0.3706155313480945  0.7280002390135261  0.836628373127716  1.0000
  C   C15       1.0  0.6944718260773727  0.2425589895746671  0.2304594344615332  1.0000
  C   C16       1.0  0.30552817476268224  0.7574410106013816  0.7695405657634425  1.0000
  C   C17       1.0  0.8381485537851548  0.2567235700268603  0.23780458799674586  1.0000
  C   C18       1.0  0.16185144603492832  0.7432764301061316  0.7621954116458951  1.0000
  C   C19       1.0  0.8742361907593097  0.28873130846398726  0.31817272749677733  1.0000
  C   C20       1.0  0.1257638100807451  0.7112686917120613  0.6818272727281984  1.0000
  C   C21       1.0  0.9832217533081561  0.36089934644528276  0.3358644437881343  1.0000
  C   C22       1.0  0.01677824651192696  0.6391006536877092  0.6641355558545068  1.0000
  C   C23       1.0  0.060496389599102425  0.4044427356207624  0.27364217505694827  1.0000
  C   C24       1.0  0.9395036102535885  0.5955572645551285  0.7263578251663853  1.0000
  C   C25       1.0  0.0996659656557466  0.5124423992070968  0.29542575301356055  1.0000
  C   C26       1.0  0.9003340341969445  0.4875576009687941  0.704574247209773  1.0000
  C   C27       1.0  0.10507668615244782  0.5859059788088982  0.23878566892825423  1.0000
  C   C28       1.0  0.8949233146549992  0.41409402132425155  0.761214330716029  1.0000
  C   C29       1.0  0.06807757629104806  0.5551703878943941  0.15840291165374154  1.0000
  C   C30       1.0  0.9319224234672719  0.4448296115095333  0.8415970885728704  1.0000
  C   C31       1.0  0.996392429023274  0.6361121397065526  0.12658333495692606  1.0000
  C   C32       1.0  0.003607570796809251  0.3638878604264393  0.8734166646857149  1.0000
  C   C33       1.0  0.8865009635875077  0.6102384107749441  0.07604023751730028  1.0000
  C   C34       1.0  0.11349903613820424  0.3897615885860844  0.9239597621286192  1.0000
  C   C35       1.0  0.8464038812003355  0.5024245702725422  0.05342431283018651  1.0000
  C   C36       1.0  0.1535961186523558  0.49757542990334874  0.9465756873931471  1.0000
  C   C37       1.0  0.7025160781008573  0.4890965610352001  0.04723364373759528  1.0000
  C   C38       1.0  0.2974839217518339  0.5109034391406908  0.9527663564857383  1.0000
  C   C39       1.0  0.6334445180487369  0.39807874380672587  0.07023127561621068  1.0000
  C   C40       1.0  0.36655548180395425  0.601921256369165  0.929768724607123  1.0000
  C   C41       1.0  0.5137974301902357  0.4036142972938164  0.11350553690376587  1.0000
  C   C42       1.0  0.4862025695680843  0.596385702110111  0.8864944633228461  1.0000
  C   C43       1.0  0.5104849235885383  0.3253506499074197  0.17040161979884108  1.0000
  C   C44       1.0  0.48951507623154483  0.6746493502255723  0.8295983798437999  1.0000
  C   C45       1.0  0.45982272940639096  0.346774692218052  0.2430340365908561  1.0000
  C   C46       1.0  0.5401772704463003  0.6532253079578388  0.7569659636324775  1.0000
  C   C47       1.0  0.5277061118204989  0.3164549939461993  0.31252783547808644  1.0000
  C   C48       1.0  0.47229388898694796  0.6835450061869505  0.6874721641661968  1.0000
  C   C49       1.0  0.6422238078809852  0.2657567654688021  0.306006447732109  1.0000
  C   C50       1.0  0.35777619295906976  0.7342432347072466  0.6939935524928668  1.0000
  C   C51       1.0  0.7529947285223452  0.29540490624481597  0.3596489279911155  1.0000
  C   C52       1.0  0.24700527133034583  0.7045950939310749  0.6403510722322182  1.0000
  C   C53       1.0  0.7426625129882416  0.3755107181363329  0.41528239014195956  1.0000
  C   C54       1.0  0.2573374868318415  0.6244892819966591  0.5847176095006816  1.0000
  C   C55       1.0  0.8548937394135662  0.4520966854518529  0.4328675987276898  1.0000
  C   C56       1.0  0.14510626043912492  0.5479033147240381  0.5671324014956438  1.0000
  C   C57       1.0  0.973547145880096  0.442902813895399  0.39526250662625206  1.0000
  C   C58       1.0  0.02645285387822379  0.5570971855085284  0.60473749360036  1.0000
  C   C59       1.0  0.04591889014081607  0.535712113640532  0.3704937334839081  1.0000
  C   C60       1.0  0.9540811097118749  0.4642878865353589  0.6295062667394256  1.0000
  C   C61       1.0  0.9994535868689358  0.6314765056602927  0.3875655617733408  1.0000
  C   C62       1.0  0.0005464129837552505  0.3685234945155982  0.6124344384499929  1.0000
  C   C63       1.0  0.008441645976893212  0.7074295412164151  0.3290424647534104  1.0000
  C   C64       1.0  0.9915583538757979  0.2925704589594758  0.6709575354699232  1.0000
  C   C65       1.0  0.05829511713675195  0.6856448058232161  0.25631526990733083  1.0000
  C   C66       1.0  0.9417048827159391  0.31435519435267484  0.7436847303160029  1.0000
  C   C67       1.0  0.9902183311514551  0.7165824287516254  0.18688974953725798  1.0000
  C   C68       1.0  0.009781668668627942  0.2834175713813665  0.8131102501053831  1.0000
  C   C69       1.0  0.8753405459385286  0.7665694027500558  0.19428921749165384  1.0000
  C   C70       1.0  0.12465945391416232  0.233430597425835  0.8057107827316797  1.0000
  C   C71       1.0  0.7598681024033404  0.7387963373600995  0.14404315949857405  1.0000
  C   C72       1.0  0.24013189744935073  0.26120366281579127  0.8559568407247595  1.0000
  C   C73       1.0  0.7671423741168191  0.6627431890755053  0.08494313253740396  1.0000
  C   C74       1.0  0.2328576267232359  0.3372568111005434  0.9150568676875718  1.0000
  C   C75       1.0  0.6543358990551957  0.5883177096201434  0.0676305720216172  1.0000
  C   C76       1.0  0.34566410178485907  0.41168229055590516  0.9323694282033587  1.0000
  C   C77       1.0  0.542401136900111  0.5939857714346115  0.11202168194546881  1.0000
  C   C78       1.0  0.45759886295258  0.4060142287412795  0.8879783182778649  1.0000
  C   C79       1.0  0.46925373490871913  0.4992107550272377  0.13435668304251788  1.0000
  C   C80       1.0  0.5307462649439719  0.5007892451486531  0.8656433171808158  1.0000
  C   C81       1.0  0.4088281879399946  0.518127567097185  0.20739784987329365  1.0000
  C   C82       1.0  0.5911718118800885  0.48187243303580707  0.7926021497693473  1.0000
  C   C83       1.0  0.40133944744885613  0.44154153627121634  0.2610932220632965  1.0000
  C   C84       1.0  0.598660552403835  0.5584584639046745  0.7389067781600372  1.0000
  C   C85       1.0  0.4055359071754623  0.45709965800323304  0.34904683980904083  1.0000
  C   C86       1.0  0.5944640926772288  0.5429003421726578  0.6509531604142927  1.0000
  C   C87       1.0  0.5134125938368826  0.3922876303389607  0.3744850670014133  1.0000
  C   C88       1.0  0.48658740598320044  0.6077123697940312  0.6255149326412278  1.0000
  C   C89       1.0  0.6217404684544549  0.42352196123003616  0.42391741894715096  1.0000
  C   C90       1.0  0.37825953139823637  0.5764780389458548  0.5760825812761827  1.0000
  C   C91       1.0  0.6578964318491751  0.5333238019399852  0.45463165991573634  1.0000
  C   C92       1.0  0.34210356797090796  0.4666761981930068  0.5453683397269047  1.0000
  C   C93       1.0  0.8070810772262458  0.5511837966808382  0.4524328032395975  1.0000
  C   C94       1.0  0.1929189235194379  0.44881620272324707  0.5475671969886566  1.0000
  C   C95       1.0  0.8783941319047979  0.6424057927797279  0.43072982272919674  1.0000
  C   C96       1.0  0.12160586782091416  0.3575942065813006  0.5692701769167228  1.0000
  C   C97       1.0  0.8217726649599081  0.7358793930659618  0.4031952748811736  1.0000
  C   C98       1.0  0.17822733479841182  0.26412060633796547  0.5968047253454384  1.0000
  C   C99       1.0  0.894600873840448  0.765126356124528  0.3364583417098398  1.0000
  C   C100      1.0  0.10539912597963516  0.23487364400846414  0.6635416579328012  1.0000
  C   C101      1.0  0.8283098524125051  0.7940967127217814  0.2696158801896227  1.0000
  C   C102      1.0  0.17169014839494168  0.2059032874113684  0.7303841194546605  1.0000
  C   C103      1.0  0.6867227477959369  0.7947200190891061  0.26689019130035957  1.0000
  C   C104      1.0  0.3132772520567542  0.205279981086785  0.733109808922974  1.0000
  C   C105      1.0  0.6405456600609984  0.7483201239322281  0.1890623977628523  1.0000
  C   C106      1.0  0.3594543397916927  0.2516798762436627  0.8109376024604814  1.0000
  C   C107      1.0  0.5320093517556178  0.674964580334976  0.17147391135786882  1.0000
  C   C108      1.0  0.4679906480644653  0.3250354197980161  0.8285260882847721  1.0000
  C   C109      1.0  0.43116194834179905  0.633261801406447  0.22747904288029983  1.0000
  C   C110      1.0  0.5688380515108922  0.366738198769444  0.7725209573430338  1.0000
  C   C111      1.0  0.6306657778705511  0.8043671133102571  0.33999609025318656  1.0000
  C   C112      1.0  0.36933422198214  0.19563288686563374  0.6600039099701471  1.0000
  C   C113      1.0  0.698174702235675  0.7755689303208871  0.40794731860343614  1.0000
  C   C114      1.0  0.3018252986043799  0.22443106985516156  0.5920526816215397  1.0000
  C   C115      1.0  0.614451865361532  0.7943643824314649  0.4756647678384736  1.0000
  C   C116      1.0  0.38554813449115916  0.20563561774442593  0.52433523238486  1.0000
  C   C117      1.0  0.5042728884168524  0.8433870230319073  0.3640504253596353  1.0000
  C   C118      1.0  0.4957271124232026  0.1566129771441414  0.6359495748653404  1.0000
  C   C119      1.0  0.38844053819933805  0.8555547879364678  0.4884209999269401  1.0000
  C   C120      1.0  0.611559461558982  0.14444521146745964  0.5115790002996718  1.0000
  C   C121      1.0  0.40813705317082266  0.9140645196865573  0.5588064380868978  1.0000
  C   C122      1.0  0.5918629466492604  0.0859354804464347  0.44119356155574324  1.0000
  C   C123      1.0  0.29908969067154684  0.9397197982399194  0.5998006862742927  1.0000
  C   C124      1.0  0.7009103090867732  0.06028020116400804  0.40019931395231934  1.0000
  C   C125      1.0  0.16967711561266738  0.9089601445082646  0.5707083412774839  1.0000
  C   C126      1.0  0.8303228842400237  0.0910398556676263  0.42929165894584975  1.0000
  C   C127      1.0  0.15055319660523148  0.8507049206137536  0.5000724137104572  1.0000
  C   C128      1.0  0.8494468042348232  0.1492950795622951  0.4999275865145186  1.0000
  C   C129      1.0  0.25991012209322406  0.8235713214623867  0.4596597994820396  1.0000
  C   C130      1.0  0.740089877726859  0.17642867867060527  0.5403402001606015  1.0000
  C   C131      1.0  0.9356241609359862  0.9112352031837365  0.5841098940642319  1.0000
  C   C132      1.0  0.06437583891670491  0.08876479699215438  0.41589010615910177  1.0000
  C   C133      1.0  0.8417878769894962  0.9547239782302388  0.6405358700238456  1.0000
  C   C134      1.0  0.15821212276882385  0.04527602117368875  0.35946413020276646  1.0000
  C   C135      1.0  0.8169650855383119  0.8893208472077943  0.7108500136139243  1.0000
  C   C136      1.0  0.18303491431437915  0.1106791529680966  0.2891499866094093  1.0000
  C   C137      1.0  0.7128255222083802  0.930264903216592  0.7634058272918851  1.0000
  C   C138      1.0  0.28717447863167467  0.06973509695945669  0.23659417293309062  1.0000
  C   C139      1.0  0.7619258878586441  0.03152613535749918  0.8088762463556282  1.0000
  C   C140      1.0  0.23807411196143902  0.9684738647754929  0.1911237532870129  1.0000
  C   C141      1.0  0.6505828583792344  0.0707998558651927  0.8546682596688578  1.0000
  C   C142      1.0  0.34941714144084873  0.9292001442677992  0.14533173997378318  1.0000
  C   C143      1.0  0.797107881095345  0.9439421328100427  0.06299195602435079  1.0000
  C   C144      1.0  0.20289211875734608  0.05605786736584814  0.9370080441989828  1.0000
  C   C145      1.0  0.6710850339453952  0.9105542476216921  0.03019726351903215  1.0000
  C   C146      1.0  0.328914965874688  0.08944575251129988  0.969802736123609  1.0000
  C   C147      1.0  0.6552991808950294  0.8366573397253575  0.9686107215472899  1.0000
  C   C148      1.0  0.3447008189576617  0.16334266045053353  0.03138927867604369  1.0000
  C   C149      1.0  0.7659808278536302  0.7947141599254819  0.9384121832667219  1.0000
  C   C150      1.0  0.23401917196645297  0.20528584020751006  0.06158781637591897  1.0000
  C   C151      1.0  0.8922378417060184  0.8275920685669945  0.9704618915211941  1.0000
  C   C152      1.0  0.10776215811406474  0.17240793156599743  0.029538108121446943  1.0000
  C   C153      1.0  0.9075062867074968  0.9012984180052513  0.032189674801262794  1.0000
  C   C154      1.0  0.09249371314519432  0.09870158217063954  0.9678103254220709  1.0000
  C   C155      1.0  0.81276974172681  0.02369346238598327  0.12916903351659892  1.0000
  C   C156      1.0  0.18723025812588112  0.9763065377899076  0.8708309667067348  1.0000
  N   N1        1.0  0.4965060115546076  0.8279834255638808  0.4444964182907  1.0000
  N   N2        1.0  0.5034939882037124  0.17201657384004657  0.555503581935912  1.0000
  O   O1        1.0  0.580302290443319  0.5992048063037951  0.4629455652907412  1.0000
  O   O2        1.0  0.4196977103641278  0.4007951938293545  0.5370544343535419  1.0000
  O   O3        1.0  0.33939483053185054  0.5111102886491019  0.38889894391762875  1.0000
  O   O4        1.0  0.6606051692264694  0.4888897107548255  0.6111010563089833  1.0000
  O   O5        1.0  0.38874828412682033  0.6791810873594613  0.28348292579253026  1.0000
  O   O6        1.0  0.6112517157258709  0.32081891281642966  0.7165170744308034  1.0000
  O   O7        1.0  0.6430532252813725  0.7913724748831502  0.5448523596650539  1.0000
  O   O8        1.0  0.35694677453871054  0.20862752524984177  0.4551476399775872  1.0000
  O   O9        1.0  0.4282905237823767  0.8909209731462385  0.3264224690448207  1.0000
  O   O10       1.0  0.5717094759759432  0.10907902625768898  0.6735775311817914  1.0000
  O   O11       1.0  0.06948807667211615  0.9376756622322366  0.6150326890833527  1.0000
  O   O12       1.0  0.9305119230535958  0.062324337128791846  0.3849673105625667  1.0000
  Br  Br1       1.0  0.7123219330274334  0.19098367746776634  0.9256591807954541  1.0000
  Br  Br2       1.0  0.28767806679264973  0.8090163226652256  0.074340818847187  1.0000
