data_image0
_chemical_formula_structural       H88C80O28F24P4
_chemical_formula_sum              "H88 C80 O28 F24 P4"
_cell_length_a       18.192600069200076
_cell_length_b       13.678243892600277
_cell_length_c       8.578856168089494
_cell_angle_alpha    90.0
_cell_angle_beta     94.73460129578197
_cell_angle_gamma    90.0

_space_group_name_H-M_alt    "P 1"
_space_group_IT_number       1

loop_
  _space_group_symop_operation_xyz
  'x, y, z'

loop_
  _atom_site_type_symbol
  _atom_site_label
  _atom_site_symmetry_multiplicity
  _atom_site_fract_x
  _atom_site_fract_y
  _atom_site_fract_z
  _atom_site_occupancy
  H   H1        1.0  0.21580733385327197  0.9942373178005023  0.34815153808394966  1.0000
  H   H2        1.0  0.7841926661213477  0.49423731753000977  0.15184846161697976  1.0000
  H   H3        1.0  0.7841926659868735  0.00576268200939466  0.6518484613634197  1.0000
  H   H4        1.0  0.2158073337187977  0.5057626822798871  0.8481515378303895  1.0000
  H   H5        1.0  0.28113448411270764  0.8986886567105334  0.984963707864641  1.0000
  H   H6        1.0  0.7188655161911227  0.39868865717112895  0.5150362924919056  1.0000
  H   H7        1.0  0.7188655157762006  0.1013113430993635  0.01503629275235579  1.0000
  H   H8        1.0  0.281134484198419  0.601311342638768  0.4849637069485736  1.0000
  H   H9        1.0  0.39328033789434713  0.9636907247377746  0.9826233232690561  1.0000
  H   H10       1.0  0.606719661811324  0.46369072446728216  0.5173766759247532  1.0000
  H   H11       1.0  0.6067196619457982  0.03630927580321028  0.017376676178313292  1.0000
  H   H12       1.0  0.3932803380288214  0.5363092753426146  0.4826233235226161  1.0000
  H   H13       1.0  0.15052074356735987  0.24122658185565837  0.6578327210110346  1.0000
  H   H14       1.0  0.8494792567364705  0.7412265813950629  0.8421672793455122  1.0000
  H   H15       1.0  0.8494792568709447  0.7587734186853264  0.3421672795990721  1.0000
  H   H16       1.0  0.15052074365307125  0.2587734184148341  0.15783272009496718  1.0000
  H   H17       1.0  0.2479115076933808  0.1274477852338251  0.5812898374308897  1.0000
  H   H18       1.0  0.7520884920610532  0.6274477847732295  0.9187101629325471  1.0000
  H   H19       1.0  0.7520884921467647  0.8725522153071599  0.41871016201647965  1.0000
  H   H20       1.0  0.24791150782785504  0.3725522150366673  0.08128983768444975  1.0000
  H   H21       1.0  0.2893973402438113  0.9904538606252726  0.7566769027662914  1.0000
  H   H22       1.0  0.7106026600112562  0.4904538603547801  0.7433230964206279  1.0000
  H   H23       1.0  0.7106026595963341  0.009546139915712336  0.24332309668107804  1.0000
  H   H24       1.0  0.2893973403782856  0.5095461394551168  0.2566769030198514  1.0000
  H   H25       1.0  0.3073947662813752  0.1816576886265507  0.2818952236464825  1.0000
  H   H26       1.0  0.6926052336932444  0.6816576888970431  0.21810477605444692  1.0000
  H   H27       1.0  0.6926052335587702  0.8183423111833462  0.7181047758008868  1.0000
  H   H28       1.0  0.307394766146901  0.31834231091285375  0.7818952233929225  1.0000
  H   H29       1.0  0.47649857010739716  0.2567154290836723  0.9802439789598522  1.0000
  H   H30       1.0  0.5235014301476704  0.7567154293541648  0.5197560202270669  1.0000
  H   H31       1.0  0.5235014302821446  0.7432845707262246  0.019756020480627034  1.0000
  H   H32       1.0  0.47649856969247495  0.24328457118682015  0.4802439792203024  1.0000
  H   H33       1.0  0.13326156502312514  0.07566165277692374  0.08091089790757705  1.0000
  H   H34       1.0  0.8667384349514945  0.5756616523163282  0.4190891017933524  1.0000
  H   H35       1.0  0.8667384348657832  0.9243383477640612  0.9190891027094198  1.0000
  H   H36       1.0  0.13326156488865087  0.42433834749356875  0.580910897654017  1.0000
  H   H37       1.0  0.0896395083906512  0.21093507782536772  0.9033400168541833  1.0000
  H   H38       1.0  0.9103604919131791  0.7109350780958601  0.5966599835023633  1.0000
  H   H39       1.0  0.9103604920476533  0.7890649219845292  0.09665998375592336  1.0000
  H   H40       1.0  0.08963950792696627  0.28906492171403675  0.40334001594500607  1.0000
  H   H41       1.0  0.3918077080805636  0.30380049753667865  0.18157190145911112  1.0000
  H   H42       1.0  0.6081922918940561  0.8038004970760831  0.31842809824181834  1.0000
  H   H43       1.0  0.6081922923089781  0.6961995022732183  0.8184280979813683  1.0000
  H   H44       1.0  0.39180770799485215  0.19619950273381379  0.6815719023751785  1.0000
  H   H45       1.0  0.4760527384214135  0.08431742254748986  0.8837217458496929  1.0000
  H   H46       1.0  0.5239472613330205  0.5843174228179823  0.6162782545137439  1.0000
  H   H47       1.0  0.5239472614674947  0.915682577262407  0.11627825476730395  1.0000
  H   H48       1.0  0.4760527385558878  0.4156825769919146  0.38372174610325294  1.0000
  H   H49       1.0  0.06791190752638966  0.9135554372414764  0.8167408801464185  1.0000
  H   H50       1.0  0.9320880927774409  0.41355543697098396  0.6832591202101281  1.0000
  H   H51       1.0  0.9320880928631521  0.08644456329950849  0.18325911929406077  1.0000
  H   H52       1.0  0.06791190711146758  0.586444562838913  0.3167408804068687  1.0000
  H   H53       1.0  0.14048570988743345  0.7318461411128558  0.20445381830626214  1.0000
  H   H54       1.0  0.859514290135949  0.23184614157345135  0.29554618256429477  1.0000
  H   H55       1.0  0.8595142905508711  0.2681538586970411  0.7955461823038447  1.0000
  H   H56       1.0  0.1404857097529592  0.7681538589675335  0.704453818052702  1.0000
  H   H57       1.0  0.23691862068120845  0.8194914974475642  0.37820718363995437  1.0000
  H   H58       1.0  0.7630813792934111  0.3194914979081597  0.12179281606097508  1.0000
  H   H59       1.0  0.7630813797083333  0.1805085023623327  0.6217928158005249  1.0000
  H   H60       1.0  0.23691862054673424  0.6805085019017372  0.8782071833863943  1.0000
  H   H61       1.0  0.9507417126051072  0.0575409581946252  0.7883061934017  1.0000
  H   H62       1.0  0.04925828714932668  0.5575409577340297  0.7116938069617367  1.0000
  H   H63       1.0  0.04925828728380091  0.9424590416152716  0.2116938072152967  1.0000
  H   H64       1.0  0.9507417126908189  0.4424590420758672  0.2883061924856328  1.0000
  H   H65       1.0  0.9047498773281558  0.09262889738977591  0.6048194393241104  1.0000
  H   H66       1.0  0.09525012292691151  0.5926288976602684  0.8951805598628088  1.0000
  H   H67       1.0  0.09525012306138575  0.9073711024201209  0.39518056011636876  1.0000
  H   H68       1.0  0.9047498769132338  0.4073711021496285  0.10481943958456066  1.0000
  H   H69       1.0  0.9921295325289232  0.14236824663241204  0.6660981474757113  1.0000
  H   H70       1.0  0.007870467225510913  0.6423682469029045  0.8339018528877254  1.0000
  H   H71       1.0  0.007870467359985143  0.8576317531774849  0.33390185314128545  1.0000
  H   H72       1.0  0.9921295326633973  0.35763175290699245  0.1660981477292714  1.0000
  H   H73       1.0  0.9815973842975665  0.8329772015663356  0.5711055288356426  1.0000
  H   H74       1.0  0.0184026160062639  0.3329772012958432  0.928894471520904  1.0000
  H   H75       1.0  0.018402616091975296  0.16702279824356125  0.42889447060483665  1.0000
  H   H76       1.0  0.9815973838826445  0.6670227985140537  0.07110552909609281  1.0000
  H   H77       1.0  0.8968417239040539  0.8997858713908564  0.5453595827735404  1.0000
  H   H78       1.0  0.1031582763997765  0.399785871120364  0.9546404175830064  1.0000
  H   H79       1.0  0.1031582764854879  0.10021412841904045  0.45464041666693894  1.0000
  H   H80       1.0  0.8968417234891317  0.6002141286895329  0.04535958303399047  1.0000
  H   H81       1.0  0.9428399273505853  0.8863026851391643  0.7341177400573752  1.0000
  H   H82       1.0  0.05716007240384877  0.3863026855997599  0.7658822603060615  1.0000
  H   H83       1.0  0.05716007248956017  0.1136973146707326  0.26588225938999416  1.0000
  H   H84       1.0  0.9428399274850596  0.613697314941225  0.23411774031093524  1.0000
  H   H85       1.0  0.09173323905754274  0.035925524055455606  0.6924645411636388  1.0000
  H   H86       1.0  0.9082667612462876  0.535925524325948  0.8075354591929079  1.0000
  H   H87       1.0  0.9082667613319989  0.9640744757544413  0.30753545827684053  1.0000
  H   H88       1.0  0.09173323864262066  0.46407447621503684  0.19246454142408892  1.0000
  C   C1        1.0  0.3204174809601759  0.9078282385882648  0.3202442175905236  1.0000
  C   C2        1.0  0.6795825190144437  0.4078282390488604  0.1797557821104058  1.0000
  C   C3        1.0  0.6795825194293658  0.09217176122163206  0.6797557818499557  1.0000
  C   C4        1.0  0.3204174808744646  0.5921717607610365  0.820244218506591  1.0000
  C   C5        1.0  0.21614264553613352  0.026767199274613743  0.9338123610268912  1.0000
  C   C6        1.0  0.7838573547676967  0.5267671995451062  0.5661876393296552  1.0000
  C   C7        1.0  0.783857354902171  0.973232800535283  0.06618763958321532  1.0000
  C   C8        1.0  0.21614264512121145  0.4732328002647907  0.4338123612873415  1.0000
  C   C9        1.0  0.24523394226138934  0.9477853547423108  0.0456403584238364  1.0000
  C   C10       1.0  0.7547660577619931  0.4477853552029064  0.45435964244672045  1.0000
  C   C11       1.0  0.7547660576275189  0.052214645067586045  0.9543596421931605  1.0000
  C   C12       1.0  0.24523394212691507  0.5522146453380785  0.5456403581702763  1.0000
  C   C13       1.0  0.2878304075675697  0.9916997851850196  0.19670131108892297  1.0000
  C   C14       1.0  0.7121695924558127  0.4916997856456151  0.3032986897816339  1.0000
  C   C15       1.0  0.7121695923213385  0.008300214624877341  0.8032986895280737  1.0000
  C   C16       1.0  0.28783040743309546  0.5083002148953698  0.6967013108353629  1.0000
  C   C17       1.0  0.3525976161838573  0.8146339952329748  0.24648607076505263  1.0000
  C   C18       1.0  0.6474023837907623  0.31463399496248234  0.25351392893587676  1.0000
  C   C19       1.0  0.647402383705051  0.18536600457692212  0.7535139298519441  1.0000
  C   C20       1.0  0.3525976165987794  0.6853660048474146  0.7464860705046025  1.0000
  C   C21       1.0  0.34447680274451953  0.06357898037411563  0.14224781438830045  1.0000
  C   C22       1.0  0.6555231972301001  0.5635789799135201  0.35775218531262903  1.0000
  C   C23       1.0  0.6555231976450222  0.9364210201668692  0.8577521850521789  1.0000
  C   C24       1.0  0.34447680261004526  0.43642101989637677  0.6422478141347404  1.0000
  C   C25       1.0  0.39232385288686034  0.037621502733869855  0.029016242017153776  1.0000
  C   C26       1.0  0.6076761470877594  0.5376215030043623  0.4709837576837757  1.0000
  C   C27       1.0  0.6076761470020479  0.962378497076027  0.9709837585998431  1.0000
  C   C28       1.0  0.39232385275238607  0.46237849680553456  0.5290162417635937  1.0000
  C   C29       1.0  0.16777901384383515  0.18004959549904775  0.7335250734353191  1.0000
  C   C30       1.0  0.8322209864112324  0.6800495957695403  0.7664749257516003  1.0000
  C   C31       1.0  0.8322209859963102  0.8199504043108491  0.26647492601205036  1.0000
  C   C32       1.0  0.16777901397830935  0.31995040404035674  0.23352507368887906  1.0000
  C   C33       1.0  0.2231752336358574  0.11683682149172382  0.6914303568842299  1.0000
  C   C34       1.0  0.7768247661185766  0.6168368210311282  0.8085696434792068  1.0000
  C   C35       1.0  0.776824766204288  0.8831631783181731  0.3085696425631394  1.0000
  C   C36       1.0  0.2231752337703316  0.3831631787787686  0.19143035713779  1.0000
  C   C37       1.0  0.2467048998266357  0.040082494090970214  0.7906959937137931  1.0000
  C   C38       1.0  0.7532950998790354  0.5400824943614626  0.7093040054800164  1.0000
  C   C39       1.0  0.7532951000135097  0.9599175057189266  0.2093040057335764  1.0000
  C   C40       1.0  0.24670489996110995  0.45991750617952226  0.2906959939673531  1.0000
  C   C41       1.0  0.3448810954930917  0.16020285258880762  0.19572936026029925  1.0000
  C   C42       1.0  0.6551189044815281  0.6602028521282121  0.3042706394406302  1.0000
  C   C43       1.0  0.6551189043958165  0.8397971479521773  0.8042706403566976  1.0000
  C   C44       1.0  0.34488109590801375  0.33979714768168484  0.6957293599998491  1.0000
  C   C45       1.0  0.4400525453810007  0.20268344034279148  0.02628026330708586  1.0000
  C   C46       1.0  0.5599474545936189  0.702683439882196  0.47371973639384357  1.0000
  C   C47       1.0  0.559947455057304  0.7973165601981934  0.973719737303021  1.0000
  C   C48       1.0  0.44005254524652637  0.29731655992770095  0.5262802630535258  1.0000
  C   C49       1.0  0.15859198637983338  0.08793214534291742  0.9722454087695698  1.0000
  C   C50       1.0  0.8414080138752341  0.5879321456134099  0.5277545904173495  1.0000
  C   C51       1.0  0.841408013460312  0.9120678544669795  0.02775459067779962  1.0000
  C   C52       1.0  0.1585919865143076  0.41206785492757503  0.47224540902312984  1.0000
  C   C53       1.0  0.13449731663372336  0.16399387725594725  0.87257345094504  1.0000
  C   C54       1.0  0.8655026831207107  0.6639938767953516  0.6274265494183967  1.0000
  C   C55       1.0  0.8655026832064221  0.8360061232850375  0.1274265485023294  1.0000
  C   C56       1.0  0.1344973167681976  0.3360061230145452  0.3725734511986001  1.0000
  C   C57       1.0  0.3822723983049509  0.9529392670832172  0.4379087129742734  1.0000
  C   C58       1.0  0.6177276016696688  0.4529392668127248  0.06209128672665602  1.0000
  C   C59       1.0  0.6177276020845909  0.04706073345776766  0.562091286466206  1.0000
  C   C60       1.0  0.3822723981704767  0.5470607329971721  0.9379087127207135  1.0000
  C   C61       1.0  0.39239195232102436  0.22902866805107552  0.1382348683096089  1.0000
  C   C62       1.0  0.6076080476535952  0.729028668321568  0.36176513139132055  1.0000
  C   C63       1.0  0.607608047519121  0.7709713317588214  0.8617651311377605  1.0000
  C   C64       1.0  0.3923919521865502  0.27097133221941694  0.6382348680560488  1.0000
  C   C65       1.0  0.43971277384931706  0.10646754667006854  0.9720216262155756  1.0000
  C   C66       1.0  0.5602872264545132  0.606467546209473  0.527978374140971  1.0000
  C   C67       1.0  0.5602872265402248  0.8935324531398284  0.02797837322490367  1.0000
  C   C68       1.0  0.43971277343439497  0.3935324536004239  0.47202162647602586  1.0000
  C   C69       1.0  0.9944481579236129  0.990243987192503  0.5884749226865845  1.0000
  C   C70       1.0  0.005551842380217409  0.4902439869220105  0.9115250776699622  1.0000
  C   C71       1.0  0.005551842514691641  0.009756013348481949  0.4115250779235222  1.0000
  C   C72       1.0  0.9944481575086909  0.5097560128878864  0.08847492294703468  1.0000
  C   C73       1.0  0.9584136219512305  0.07587468085442252  0.666312406448089  1.0000
  C   C74       1.0  0.04158637780320337  0.5758746803938269  0.8336875939153477  1.0000
  C   C75       1.0  0.04158637793767761  0.9241253196865623  0.3336875941689078  1.0000
  C   C76       1.0  0.9584136220857048  0.4241253194160699  0.16631240670164907  1.0000
  C   C77       1.0  0.9512995614595022  0.8964402167615544  0.6100889989519017  1.0000
  C   C78       1.0  0.048700438294931675  0.396440216491062  0.8899110014115351  1.0000
  C   C79       1.0  0.048700438429405905  0.10355978304834247  0.3899110016650951  1.0000
  C   C80       1.0  0.9512995615452138  0.6035597833188349  0.11008899803583432  1.0000
  O   O1        1.0  0.18494705275630607  0.891064952906245  0.0999862041033216  1.0000
  O   O2        1.0  0.8150529472183136  0.39106495336684066  0.4000137955976078  1.0000
  O   O3        1.0  0.8150529470838392  0.10893504690365181  0.9000137953440478  1.0000
  O   O4        1.0  0.18494705262183184  0.6089350471741443  0.5999862038497615  1.0000
  O   O5        1.0  0.1808393714252625  0.7801285043449718  0.8591852927084377  1.0000
  O   O6        1.0  0.8191606288785678  0.2801285040744794  0.640814707648109  1.0000
  O   O7        1.0  0.8191606284148829  0.219871495464925  0.1408147067389317  1.0000
  O   O8        1.0  0.1808393715597367  0.7198714957354175  0.35918529296199775  1.0000
  O   O9        1.0  0.23683175997235154  0.043659705492096815  0.28115018055891894  1.0000
  O   O10       1.0  0.7631682400022681  0.5436597057625893  0.2188498191420105  1.0000
  O   O11       1.0  0.7631682398677939  0.9563402943178001  0.7188498188884505  1.0000
  O   O12       1.0  0.23683176038727363  0.4563402947783956  0.7811501802984688  1.0000
  O   O13       1.0  0.10782308881177065  0.7433104592834677  0.10019471073439043  1.0000
  O   O14       1.0  0.8921769111628489  0.24331045974406335  0.399805288966539  1.0000
  O   O15       1.0  0.8921769116265339  0.2566895405264291  0.8998052898757164  1.0000
  O   O16       1.0  0.10782308867729641  0.7566895407969216  0.6001947104808303  1.0000
  O   O17       1.0  0.2640655140267398  0.8803198776499462  0.4141042464353113  1.0000
  O   O18       1.0  0.7359344859478799  0.38031987811054174  0.08589575326561814  1.0000
  O   O19       1.0  0.7359344858134056  0.11968012215995064  0.5858957530120581  1.0000
  O   O20       1.0  0.2640655144904247  0.619680121699355  0.9141042473444886  1.0000
  O   O21       1.0  0.06465471285100784  0.8731194080009673  0.9185567191235511  1.0000
  O   O22       1.0  0.9353452874528225  0.37311940773047486  0.5814432812329956  1.0000
  O   O23       1.0  0.9353452875872967  0.1268805918089296  0.08144328148655565  1.0000
  O   O24       1.0  0.06465471243608575  0.626880592079422  0.41855671938400124  1.0000
  O   O25       1.0  0.06769511712337371  0.9728447178222039  0.6685433869084023  1.0000
  O   O26       1.0  0.9323048825822974  0.47284471828279945  0.8314566122854071  1.0000
  O   O27       1.0  0.9323048827167717  0.027155281987692997  0.3314566125389672  1.0000
  O   O28       1.0  0.06769511725784794  0.5271552815270975  0.16854338716196227  1.0000
  F   F1        1.0  0.2985782308395532  0.7624936111602924  0.1652885639529801  1.0000
  F   F2        1.0  0.7014217691838293  0.2624936108898  0.33471143691757677  1.0000
  F   F3        1.0  0.701421769049355  0.23750638938069246  0.8347114366640167  1.0000
  F   F4        1.0  0.29857823125447525  0.7375063889200969  0.66528856369253  1.0000
  F   F5        1.0  0.3611921273146035  0.04039613742367324  0.4944442330267502  1.0000
  F   F6        1.0  0.6388078727087789  0.5403961369630778  0.005555767843806657  1.0000
  F   F7        1.0  0.6388078725743047  0.9596038623862236  0.5055557675902466  1.0000
  F   F8        1.0  0.3611921271801293  0.4596038628468192  0.99444423277319  1.0000
  F   F9        1.0  0.40476059731826614  0.8352881648923441  0.14732318056604407  1.0000
  F   F10       1.0  0.5952394026563534  0.3352881646218518  0.35267681913488536  1.0000
  F   F11       1.0  0.5952394025218792  0.1647118356486407  0.8526768188813253  1.0000
  F   F12       1.0  0.404760597183792  0.6647118351880452  0.647323180312484  1.0000
  F   F13       1.0  0.4464246781616196  0.9667076427225697  0.3702828098656452  1.0000
  F   F14       1.0  0.553575321813  0.4667076424520773  0.12971718983528427  1.0000
  F   F15       1.0  0.553575322227922  0.03329235708732714  0.629717189574834  1.0000
  F   F16       1.0  0.44642467807590824  0.5332923573578195  0.8702828107817125  1.0000
  F   F17       1.0  0.3839209378287301  0.7532670407766283  0.35757055033096735  1.0000
  F   F18       1.0  0.6160790621458895  0.2532670412372239  0.14242944936996213  1.0000
  F   F19       1.0  0.6160790620601782  0.24673295903326856  0.6424294502860295  1.0000
  F   F20       1.0  0.38392093769425584  0.746732959303761  0.8575705500774072  1.0000
  F   F21       1.0  0.39758769649785725  0.8943913916184992  0.5644509393772437  1.0000
  F   F22       1.0  0.6024123032078139  0.3943913913480068  0.9355490598165658  1.0000
  F   F23       1.0  0.6024123033422881  0.10560860819139763  0.4355490600701258  1.0000
  F   F24       1.0  0.39758769663233146  0.6056086084618901  0.06445093963080371  1.0000
  P   P1        1.0  0.13605337836446865  0.81983226633841  0.9865950291993042  1.0000
  P   P2        1.0  0.8639466213899654  0.3198322660679176  0.5134049711641325  1.0000
  P   P3        1.0  0.8639466215244397  0.1801677342025749  0.013404971417692544  1.0000
  P   P4        1.0  0.13605337845018006  0.6801677337419793  0.4865950282832369  1.0000
