data_image0
_chemical_formula_structural       H16C34N6O2F8I6
_chemical_formula_sum              "H16 C34 N6 O2 F8 I6"
_cell_length_a       4.763672727634313
_cell_length_b       12.29217018659603
_cell_length_c       17.177161115301868
_cell_angle_alpha    76.5657714159645
_cell_angle_beta     89.65014885377109
_cell_angle_gamma    82.21353161902468

_space_group_name_H-M_alt    "P 1"
_space_group_IT_number       1

loop_
  _space_group_symop_operation_xyz
  'x, y, z'

loop_
  _atom_site_type_symbol
  _atom_site_label
  _atom_site_symmetry_multiplicity
  _atom_site_fract_x
  _atom_site_fract_y
  _atom_site_fract_z
  _atom_site_occupancy
  H   H1        1.0  0.8859600102252266  0.13256356984835846  0.9678757639431997  1.0000
  H   H2        1.0  0.11403999143117186  0.8674364300291932  0.03212423601807622  1.0000
  H   H3        1.0  0.49582513146045687  0.28059972953689055  0.08223746734517698  1.0000
  H   H4        1.0  0.5041748678153014  0.7194002711623372  0.9177625326212892  1.0000
  H   H5        1.0  0.339640878741066  0.4619818301148239  0.9858859301250659  1.0000
  H   H6        1.0  0.6603591229153326  0.5380181697627278  0.014114069836209824  1.0000
  H   H7        1.0  0.7321720629609596  0.5017580377320879  0.8500547370807678  1.0000
  H   H8        1.0  0.2678279386954391  0.49824196214546385  0.14994526288050788  1.0000
  H   H9        1.0  0.6676834764208092  0.5802100268665821  0.7238240649007963  1.0000
  H   H10       1.0  0.3323165231356572  0.41978997301297805  0.27617593506140603  1.0000
  H   H11       1.0  0.6091536911238666  0.9162312511427083  0.6065791908076497  1.0000
  H   H12       1.0  0.39084630843259965  0.083768748736852  0.39342080915455263  1.0000
  H   H13       1.0  0.9867935630778807  0.9509613122382877  0.6954913033208211  1.0000
  H   H14       1.0  0.013206436478585541  0.04903868764127241  0.30450869664138125  1.0000
  H   H15       1.0  0.2132363120511944  0.788771533396917  0.8032644955144526  1.0000
  H   H16       1.0  0.7867636875052719  0.21122846648264312  0.19673550444774981  1.0000
  C   C1        1.0  0.039005202808659316  0.39199143138223236  0.9247185806619334  1.0000
  C   C2        1.0  0.9609947967478071  0.6080085684973279  0.07528141930026903  1.0000
  C   C3        1.0  0.995076172644593  0.2032361116487339  0.9731780892221347  1.0000
  C   C4        1.0  0.004923826911873326  0.7967638882308262  0.02682191074006785  1.0000
  C   C5        1.0  0.2091509122714483  0.1903498605774336  0.031120598258940375  1.0000
  C   C6        1.0  0.7908490872850179  0.8096501393021265  0.968879401703262  1.0000
  C   C7        1.0  0.33429848266863277  0.28482142490959994  0.03662619115143396  1.0000
  C   C8        1.0  0.6657015168878334  0.7151785749699602  0.9633738088107685  1.0000
  C   C9        1.0  0.24782808243409632  0.3871348720106982  0.9830074176850238  1.0000
  C   C10       1.0  0.7521719192223023  0.6128651278668534  0.01699258227625207  1.0000
  C   C11       1.0  0.09621280462643124  0.576819028293445  0.8372193095075355  1.0000
  C   C12       1.0  0.903787194930035  0.4231809715861153  0.16278069045466675  1.0000
  C   C13       1.0  0.9532351609008864  0.6722947645182262  0.7741831399279417  1.0000
  C   C14       1.0  0.046764838716629294  0.3277052351581687  0.22581686063299863  1.0000
  C   C15       1.0  0.7415663498631229  0.6611174706233321  0.7212708710231474  1.0000
  C   C16       1.0  0.2584336496933431  0.33888252925622814  0.27872912893905505  1.0000
  C   C17       1.0  0.7120452579636446  0.8487065522671735  0.654752630484915  1.0000
  C   C18       1.0  0.2879547415928217  0.15129344761238653  0.34524736947728735  1.0000
  C   C19       1.0  0.9210478898386297  0.8677862825461352  0.7043444499525015  1.0000
  C   C20       1.0  0.07895210943712855  0.13221371815309224  0.29565555001396465  1.0000
  C   C21       1.0  0.04535497430505997  0.7779842438576791  0.764147356352911  1.0000
  C   C22       1.0  0.9546450252514063  0.222015756021881  0.23585264360929145  1.0000
  C   C23       1.0  0.9586477177790068  0.27528162470163803  0.561331125319004  1.0000
  C   C24       1.0  0.04135228387739151  0.7247183751759136  0.43866887464227194  1.0000
  C   C25       1.0  0.9570059561394383  0.37363677616000707  0.5886542768685076  1.0000
  C   C26       1.0  0.04299404347807719  0.626363223516388  0.41134572369243266  1.0000
  C   C27       1.0  0.13729418356676737  0.37755128827515577  0.6511951485598189  1.0000
  C   C28       1.0  0.862705818089631  0.622448711602396  0.34880485140145684  1.0000
  C   C29       1.0  0.3210832823854586  0.28272772762277004  0.690144915521328  1.0000
  C   C30       1.0  0.67891671927094  0.7172722722547816  0.3098550844399478  1.0000
  C   C31       1.0  0.3212295344440906  0.18420032225227126  0.6633106830840562  1.0000
  C   C32       1.0  0.6787704672733574  0.8157996774221151  0.3366893174759575  1.0000
  C   C33       1.0  0.1443763756646347  0.18083580606988628  0.5999391186612094  1.0000
  C   C34       1.0  0.8556236238918316  0.8191641938096738  0.4000608813009931  1.0000
  N   N1        1.0  0.9131723450335198  0.3018957410257971  0.9211050731896572  1.0000
  N   N2        1.0  0.08682765452294629  0.698104258853763  0.07889492677254516  1.0000
  N   N3        1.0  0.9418383058363504  0.49130496800431434  0.867278007872309  1.0000
  N   N4        1.0  0.0581616934394078  0.5086950326949131  0.13272199209415708  1.0000
  N   N5        1.0  0.6258194253329022  0.7471812532583991  0.6628658294081304  1.0000
  N   N6        1.0  0.3741805763234962  0.25281874661915277  0.3371341705531453  1.0000
  O   O1        1.0  0.34405999007713023  0.5769734801688023  0.8601917830635848  1.0000
  O   O2        1.0  0.6559400091986279  0.4230265205304254  0.13980821690288128  1.0000
  F   F1        1.0  0.7757527993287375  0.46739162519394656  0.5553081120527346  1.0000
  F   F2        1.0  0.22424720022772862  0.5326083746856135  0.4446918879094679  1.0000
  F   F3        1.0  0.12640872413406373  0.4752747349336197  0.6756934054998819  1.0000
  F   F4        1.0  0.8735912754224026  0.5247252649459405  0.32430659446232046  1.0000
  F   F5        1.0  0.49772061022723346  0.08904480078416356  0.6986116310912938  1.0000
  F   F6        1.0  0.502279391429165  0.9109551990933883  0.30138836886998205  1.0000
  F   F7        1.0  0.1596612081126257  0.0827777548346073  0.5752801695981419  1.0000
  F   F8        1.0  0.8403387914438406  0.9172222450449528  0.42471983036406047  1.0000
  I   I1        1.0  0.34121984548612894  0.032246742134548284  0.10796171042148173  1.0000
  I   I2        1.0  0.6587801540703372  0.9677532577450119  0.8920382895407206  1.0000
  I   I3        1.0  0.7030739134141483  0.27075890493345905  0.4623248267278276  1.0000
  I   I4        1.0  0.2969260858616099  0.7292410957657683  0.5376751732386386  1.0000
  I   I5        1.0  0.5732328620926502  0.2888835244685896  0.7889660062698923  1.0000
  I   I6        1.0  0.4267671374638161  0.7111164754109704  0.21103399369231  1.0000
