data_image0
_chemical_formula_structural       H36C68N12O4F12I12
_chemical_formula_sum              "H36 C68 N12 O4 F12 I12"
_cell_length_a       4.301484372646444
_cell_length_b       31.17184581194489
_cell_length_c       14.0391769889739
_cell_angle_alpha    90.0
_cell_angle_beta     90.27274421239706
_cell_angle_gamma    90.0

_space_group_name_H-M_alt    "P 1"
_space_group_IT_number       1

loop_
  _space_group_symop_operation_xyz
  'x, y, z'

loop_
  _atom_site_type_symbol
  _atom_site_label
  _atom_site_symmetry_multiplicity
  _atom_site_fract_x
  _atom_site_fract_y
  _atom_site_fract_z
  _atom_site_occupancy
  H   H1        1.0  0.2276081286599184  0.39247755374537036  0.8833932222303698  1.0000
  H   H2        1.0  0.772391870723652  0.8924775538745752  0.6166067774449415  1.0000
  H   H3        1.0  0.7723918700839634  0.607522446192237  0.11660677759989857  1.0000
  H   H4        1.0  0.22760813034498256  0.10752244638383447  0.3833932223839298  1.0000
  H   H5        1.0  0.6570308781129023  0.2981622931818328  0.20024116273861095  1.0000
  H   H6        1.0  0.34296912231604365  0.7981622933110376  0.2997588372452174  1.0000
  H   H7        1.0  0.3429691229557322  0.7018377067557745  0.7997588370902604  1.0000
  H   H8        1.0  0.6570308787525908  0.20183770662656975  0.700241162583654  1.0000
  H   H9        1.0  0.05817049307557982  0.4067635335582615  0.14116241983120248  1.0000
  H   H10       1.0  0.941829507353366  0.9067635336874663  0.35883758015262596  1.0000
  H   H11       1.0  0.9418295079930546  0.5932364663793459  0.858837579997669  1.0000
  H   H12       1.0  0.05817049139051568  0.09323646625014102  0.6411624196776424  1.0000
  H   H13       1.0  0.7436179302168097  0.2922489484568513  0.024598445467671207  1.0000
  H   H14       1.0  0.25638207021213627  0.7922489485860562  0.47540155451615723  1.0000
  H   H15       1.0  0.2563820685270721  0.707751051480756  0.9754015543625971  1.0000
  H   H16       1.0  0.7436179308721239  0.2077510513515512  0.5245984460250134  1.0000
  H   H17       1.0  0.14633911805839098  0.4184172528211996  0.7654990959598891  1.0000
  H   H18       1.0  0.8536608813408052  0.9184172526296022  0.7345009044277213  1.0000
  H   H19       1.0  0.8536608830102436  0.5815827474372101  0.23450090386898226  1.0000
  H   H20       1.0  0.14633911741870245  0.08158274730800517  0.2654990961148461  1.0000
  H   H21       1.0  0.567511575112452  0.5022225290874821  0.93532967699992  1.0000
  H   H22       1.0  0.43248842661149683  0.00222252895827722  0.5646703233862935  1.0000
  H   H23       1.0  0.43248842597180825  0.4977774708501253  0.06467032354125057  1.0000
  H   H24       1.0  0.5675115744571377  0.9977774709793301  0.43532967644257786  1.0000
  H   H25       1.0  0.3077628767898083  0.35725120248518205  0.25939997438070395  1.0000
  H   H26       1.0  0.6922371236391377  0.8572512026143869  0.24060002560312446  1.0000
  H   H27       1.0  0.692237124294452  0.6427487974524253  0.7406000261604665  1.0000
  H   H28       1.0  0.3077628774294968  0.14274879732322046  0.7593999742257469  1.0000
  H   H29       1.0  0.44361016992787816  0.5417461812135905  0.78736636568033  1.0000
  H   H30       1.0  0.556389829471318  0.04174618140518796  0.7126336347072805  1.0000
  H   H31       1.0  0.5563898311563822  0.4582538187240169  0.21263363486084064  1.0000
  H   H32       1.0  0.4436101692725638  0.9582538188532217  0.2873663651229878  1.0000
  H   H33       1.0  0.003885413224123522  0.4620914153399401  0.6254735597193244  1.0000
  H   H34       1.0  0.9961145861750729  0.9620914151483426  0.8745264406682861  1.0000
  H   H35       1.0  0.9961145878601368  0.5379085849184696  0.3745264408218462  1.0000
  H   H36       1.0  0.0038854125688091243  0.03790858478926474  0.12547355916198222  1.0000
  C   C1        1.0  0.06646301929281358  0.6874662661711322  0.5044856523355008  1.0000
  C   C2        1.0  0.9335369800907568  0.18746626636272964  0.9955143473398105  1.0000
  C   C3        1.0  0.9335369794510683  0.31253373376647514  0.49551434749476747  1.0000
  C   C4        1.0  0.06646302097787772  0.8125337335748777  0.004485652489060906  1.0000
  C   C5        1.0  0.4156018766451064  0.6270409907041842  0.40765108456442256  1.0000
  C   C6        1.0  0.5843981237838396  0.1270409905749793  0.09234891541940583  1.0000
  C   C7        1.0  0.5843981221144012  0.3729590092334232  0.592348915978145  1.0000
  C   C8        1.0  0.4156018772847949  0.872959009362628  0.9076510844094655  1.0000
  C   C9        1.0  0.30350715421513097  0.6622788196292551  0.3566296349988684  1.0000
  C   C10       1.0  0.6964928462138149  0.16227881982085246  0.14337036498495995  1.0000
  C   C11       1.0  0.6964928445287508  0.33772118030835235  0.6433703648314  1.0000
  C   C12       1.0  0.30350715485481955  0.8377211801167549  0.8566296348439114  1.0000
  C   C13       1.0  0.18451477062105917  0.6511049230912922  0.5502750045280483  1.0000
  C   C14       1.0  0.8154852310872638  0.1511049232828897  0.9497249951458661  1.0000
  C   C15       1.0  0.8154852304475753  0.3488950768463151  0.4497249953008231  1.0000
  C   C16       1.0  0.18451476998137062  0.8488950766547176  0.05027500468300532  1.0000
  C   C17       1.0  0.12796766200820664  0.6922158848139675  0.4072461550389663  1.0000
  C   C18       1.0  0.8720323384207394  0.1922158846847626  0.09275384494486218  1.0000
  C   C19       1.0  0.8720323390604279  0.30778411544444223  0.5927538447899051  1.0000
  C   C20       1.0  0.12796766266352103  0.8077841152528447  0.9072461555963084  1.0000
  C   C21       1.0  0.3590669453746169  0.6198952351610637  0.5038075748909128  1.0000
  C   C22       1.0  0.6409330563337061  0.11989523503185892  0.9961924247830015  1.0000
  C   C23       1.0  0.6409330556940175  0.38010476509734586  0.4961924249379586  1.0000
  C   C24       1.0  0.35906694473492834  0.8801047649057484  0.0038075750458698185  1.0000
  C   C25       1.0  0.27366829933732345  0.3750438078171213  0.02196480941945322  1.0000
  C   C26       1.0  0.7263316987668698  0.8750438079463261  0.47803519056577215  1.0000
  C   C27       1.0  0.7263316994065584  0.624956192120486  0.9780351904108151  1.0000
  C   C28       1.0  0.27366829997701203  0.12495619199128118  0.5219648092644962  1.0000
  C   C29       1.0  0.8684218667284194  0.4565491933283774  0.8642661850910396  1.0000
  C   C30       1.0  0.13157813497990375  0.9565491934575823  0.6357338145828748  1.0000
  C   C31       1.0  0.1315781343402152  0.54345080660923  0.13573381473783186  1.0000
  C   C32       1.0  0.8684218660887307  0.043450806480025146  0.3642661852459966  1.0000
  C   C33       1.0  0.944159831532899  0.4341327360478066  0.9562847000107838  1.0000
  C   C34       1.0  0.05584016786629726  0.9341327361770114  0.5437153003768268  1.0000
  C   C35       1.0  0.05584016721098285  0.5658672638898007  0.043715299819484604  1.0000
  C   C36       1.0  0.9441598332179632  0.06586726376059587  0.45628470016434386  1.0000
  C   C37       1.0  0.5437981650131442  0.32038510135877274  0.15136623148434664  1.0000
  C   C38       1.0  0.45620183309104906  0.8203851011671752  0.3486337685008786  1.0000
  C   C39       1.0  0.45620183373073764  0.6796148985788346  0.8486337683459215  1.0000
  C   C40       1.0  0.5437981656684586  0.1796148987704321  0.6513662320416888  1.0000
  C   C41       1.0  0.21185019227801893  0.38108180733551617  0.1190143008516262  1.0000
  C   C42       1.0  0.788149808150927  0.881081807464721  0.3809856991322022  1.0000
  C   C43       1.0  0.788149806465863  0.6189181926020912  0.8809856989786422  1.0000
  C   C44       1.0  0.21185019291770749  0.11891819279368868  0.6190143006966693  1.0000
  C   C45       1.0  0.5918526332867007  0.3169977530240925  0.053685626563654554  1.0000
  C   C46       1.0  0.40814736714224514  0.8169977531532974  0.4463143734201739  1.0000
  C   C47       1.0  0.4081473677975595  0.6830022469135149  0.946314373977516  1.0000
  C   C48       1.0  0.5918526316016366  0.18300224678431  0.5536856264100944  1.0000
  C   C49       1.0  0.9889159819276746  0.4453548453226432  0.7752367078784562  1.0000
  C   C50       1.0  0.011084017471521412  0.9453548451310456  0.7247632925091542  1.0000
  C   C51       1.0  0.011084019156585556  0.5546451546149641  0.22476329266271436  1.0000
  C   C52       1.0  0.9889159812723602  0.05464515480656167  0.27523670732111405  1.0000
  C   C53       1.0  0.6683268482882461  0.4917847881861934  0.8685519052806311  1.0000
  C   C54       1.0  0.33167315111095014  0.9917847883153982  0.6314480951069793  1.0000
  C   C55       1.0  0.33167315047126156  0.5082152117514139  0.13144809526193635  1.0000
  C   C56       1.0  0.6683268499576843  0.008215211622209109  0.3685519047218921  1.0000
  C   C57       1.0  0.3508462497078813  0.35317935153462454  0.18371812204698723  1.0000
  C   C58       1.0  0.6491537507210645  0.8531793516638294  0.31628187793684115  1.0000
  C   C59       1.0  0.6491537513607533  0.6468206484029828  0.8162818777818842  1.0000
  C   C60       1.0  0.3508462503475699  0.14682064827377797  0.6837181218920303  1.0000
  C   C61       1.0  0.59907532907423  0.514120120979775  0.7855916795241579  1.0000
  C   C62       1.0  0.40092467030934037  0.014120121171372428  0.7144083201511534  1.0000
  C   C63       1.0  0.40092466966965185  0.4858798789578324  0.21440832030611043  1.0000
  C   C64       1.0  0.5990753307592941  0.9858798790870372  0.28559167967771804  1.0000
  C   C65       1.0  0.9092959269151341  0.46975968020439685  0.6954653739890738  1.0000
  C   C66       1.0  0.09070407248406219  0.9697596803336016  0.8045346263985366  1.0000
  C   C67       1.0  0.09070407415350049  0.5302403197332105  0.3045346258397976  1.0000
  C   C68       1.0  0.9092959262754454  0.030240319604005694  0.19546537414403087  1.0000
  N   N1        1.0  0.15194443483300774  0.4009551011320168  0.9495390408054777  1.0000
  N   N2        1.0  0.8480555668753152  0.9009551012612216  0.5504609588684366  1.0000
  N   N3        1.0  0.8480555662356267  0.5990448988055905  0.050460959023393696  1.0000
  N   N4        1.0  0.15194443419331918  0.0990448986763857  0.44953904096043473  1.0000
  N   N5        1.0  0.46035665323332675  0.34350254568168365  0.9899295153141433  1.0000
  N   N6        1.0  0.5396433461502436  0.8435025454900862  0.510070484361168  1.0000
  N   N7        1.0  0.5396433478353078  0.6564974542559237  0.010070484514728128  1.0000
  N   N8        1.0  0.46035665259363817  0.1564974544475212  0.48992951546910024  1.0000
  N   N9        1.0  0.7177340998034017  0.5036208274193472  0.7005073134519146  1.0000
  N   N10       1.0  0.2822658995957945  0.0036208276109446686  0.799492686935696  1.0000
  N   N11       1.0  0.28226589894048015  0.49637917251826014  0.29949268637835375  1.0000
  N   N12       1.0  0.7177341014884658  0.9963791726474649  0.20050731360547464  1.0000
  O   O1        1.0  0.824867716483008  0.4459171434331158  0.031977600948402275  1.0000
  O   O2        1.0  0.17513228394593786  0.9459171432415183  0.46802239903542614  1.0000
  O   O3        1.0  0.1751322845856264  0.5540828565044916  0.9680223988804691  1.0000
  O   O4        1.0  0.8248677171226966  0.054082856696089074  0.5319776007934452  1.0000
  F   F1        1.0  0.01671066330102209  0.7272496087258676  0.3609522156729726  1.0000
  F   F2        1.0  0.9832893371279239  0.22724960859666282  0.13904778431085582  1.0000
  F   F3        1.0  0.9832893377676123  0.2727503912117397  0.6390477841558988  1.0000
  F   F4        1.0  0.01671066394071065  0.7727503913409445  0.8609522155180156  1.0000
  F   F5        1.0  0.13299266982590208  0.6465292110574112  0.6449213624770233  1.0000
  F   F6        1.0  0.8670073295732942  0.14652921092820637  0.8550786379105871  1.0000
  F   F7        1.0  0.8670073289179797  0.35347078920099845  0.3550786373532451  1.0000
  F   F8        1.0  0.13299266918621352  0.853470789009401  0.1449213626319803  1.0000
  F   F9        1.0  0.5932123874515056  0.597799771704868  0.36100635354493077  1.0000
  F   F10       1.0  0.4067876129774403  0.09779977189646537  0.13899364643889767  1.0000
  F   F11       1.0  0.40678761130800195  0.40220022823273943  0.6389936469976367  1.0000
  F   F12       1.0  0.5932123880911943  0.902200228041142  0.8610063533899738  1.0000
  I   I1        1.0  0.53346686408441  0.565231527394774  0.5768390169997929  1.0000
  I   I2        1.0  0.4665331352991603  0.06523152758637142  0.9231609826755185  1.0000
  I   I3        1.0  0.4665331346594717  0.4347684725428334  0.4231609828304754  1.0000
  I   I4        1.0  0.5334668657694741  0.934768472351236  0.07683901715335299  1.0000
  I   I5        1.0  0.39661358125756807  0.6666680008418597  0.20853697151638254  1.0000
  I   I6        1.0  0.6033864191870038  0.1666680010334572  0.29146302917974504  1.0000
  I   I7        1.0  0.6033864175019396  0.3333319990957476  0.7914630290261849  1.0000
  I   I8        1.0  0.3966135818972566  0.8333319989041501  0.7085369713614256  1.0000
  I   I9        1.0  0.8309899228985811  0.7341114699480232  0.5835048908859741  1.0000
  I   I10       1.0  0.16901007648498925  0.23411147013962078  0.9164951087893372  1.0000
  I   I11       1.0  0.1690100758453007  0.26588852998958407  0.4164951089442942  1.0000
  I   I12       1.0  0.8309899222588926  0.7658885297979866  0.08350489104093112  1.0000
