data_image0
_chemical_formula_structural       H32C68N12O4F16Br4I8
_chemical_formula_sum              "H32 C68 N12 O4 F16 Br4 I8"
_cell_length_a       10.803027590542358
_cell_length_b       4.131564613517202
_cell_length_c       41.7378174839439
_cell_angle_alpha    90.0
_cell_angle_beta     89.95946566853016
_cell_angle_gamma    90.0

_space_group_name_H-M_alt    "P 1"
_space_group_IT_number       1

loop_
  _space_group_symop_operation_xyz
  'x, y, z'

loop_
  _atom_site_type_symbol
  _atom_site_label
  _atom_site_symmetry_multiplicity
  _atom_site_fract_x
  _atom_site_fract_y
  _atom_site_fract_z
  _atom_site_occupancy
  H   H1        1.0  0.31526205787713946  0.9070790706597759  0.589794604194679  1.0000
  H   H2        1.0  0.18473794221678658  0.40707906987523074  0.9102053958323185  1.0000
  H   H3        1.0  0.6847379420933781  0.09292092848892378  0.41020539570950953  1.0000
  H   H4        1.0  0.8152620577569792  0.592920929273469  0.08979460431145887  1.0000
  H   H5        1.0  0.6622030357871153  0.31276250788195975  0.5976347992191259  1.0000
  H   H6        1.0  0.8377969650975704  0.8127625062461142  0.9023652008757355  1.0000
  H   H7        1.0  0.3377969641866506  0.6872374936871304  0.40236520092465144  1.0000
  H   H8        1.0  0.16220303580185644  0.18723749290258537  0.09763479926703159  1.0000
  H   H9        1.0  0.714384947363149  0.1854895957557337  0.6549296478634138  1.0000
  H   H10       1.0  0.7856150525958758  0.6854895941198883  0.8450703522324579  1.0000
  H   H11       1.0  0.285615052610617  0.8145104058133565  0.3450703522803637  1.0000
  H   H12       1.0  0.21438494737464175  0.31451040502881145  0.15492964767173062  1.0000
  H   H13       1.0  0.06885578904282105  0.34584410354497547  0.5210336490276422  1.0000
  H   H14       1.0  0.43114421105110495  0.8458441043295206  0.9789663509993551  1.0000
  H   H15       1.0  0.9311442118566057  0.6541558956037242  0.4789663511151248  1.0000
  H   H16       1.0  0.5688557889194126  0.15415589481917907  0.02103364890483327  1.0000
  H   H17       1.0  0.33918162760427706  0.8687713918975493  0.460565691475928  1.0000
  H   H18       1.0  0.1608183723809817  0.36877139353339466  0.039434308476166344  1.0000
  H   H19       1.0  0.6608183723662405  0.1312286072511504  0.5394343084282607  1.0000
  H   H20       1.0  0.8391816275895359  0.6312286080356956  0.9605656914280222  1.0000
  H   H21       1.0  0.44468318248545813  0.6823086902180098  0.5100470663326131  1.0000
  H   H22       1.0  0.05531681760521956  0.18230868943346465  0.9899529334547956  1.0000
  H   H23       1.0  0.5553168174850593  0.3176913113510805  0.4899529335715755  1.0000
  H   H24       1.0  0.9446831823652981  0.8176913097152351  0.010047066449392983  1.0000
  H   H25       1.0  0.3413381833722768  0.8288924899772092  0.6334606294626466  1.0000
  H   H26       1.0  0.15866181672164928  0.3288924891926641  0.8665393705643508  1.0000
  H   H27       1.0  0.6586618166014891  0.17110751159188098  0.3665393706811307  1.0000
  H   H28       1.0  0.8413381832488683  0.6711075099560355  0.13346062933983774  1.0000
  H   H29       1.0  0.40929480561537684  0.6905878539730891  0.6880781181039561  1.0000
  H   H30       1.0  0.09070519447530087  0.190587853188544  0.8119218816834525  1.0000
  H   H31       1.0  0.5907051943551407  0.3094121475960011  0.3119218818002324  1.0000
  H   H32       1.0  0.9092948054952167  0.8094121459601558  0.18807811822073603  1.0000
  C   C1        1.0  0.3697884653874218  0.8135002364488632  0.8211022987323492  1.0000
  C   C2        1.0  0.1302115337808432  0.31350023566431806  0.6788977012956584  1.0000
  C   C3        1.0  0.6302115345830956  0.1864997626998365  0.17889770117183926  1.0000
  C   C4        1.0  0.8697884661929226  0.6864997634843816  0.3211022988481189  1.0000
  C   C5        1.0  0.4390611481953362  0.9106884248379029  0.847594306974876  1.0000
  C   C6        1.0  0.06093885189858977  0.41068842405335776  0.6524056930521215  1.0000
  C   C7        1.0  0.5609388517751812  0.08931157431079678  0.15240569292931255  1.0000
  C   C8        1.0  0.939061148075176  0.5893115750953418  0.34759430709165584  1.0000
  C   C9        1.0  0.40278478961330555  0.9023597350511283  0.7900396718183382  1.0000
  C   C10       1.0  0.09721521048062047  0.4023597366869737  0.7099603282086593  1.0000
  C   C11       1.0  0.5972152103604603  0.09764026409757136  0.2099603283254391  1.0000
  C   C12       1.0  0.902784789489897  0.5976402648821165  0.2900396716955293  1.0000
  C   C13       1.0  0.5778329668289872  0.1844867916397228  0.810660091996736  1.0000
  C   C14       1.0  0.9221670331267892  0.6844867924242679  0.6893399078595468  1.0000
  C   C15       1.0  0.42216703314153026  0.8155132075089768  0.18933990790745245  1.0000
  C   C16       1.0  0.07783296684372852  0.3155132067244317  0.31066009204464184  1.0000
  C   C17       1.0  0.5082605345718761  0.08880484860374854  0.7841389793768914  1.0000
  C   C18       1.0  0.9917394653839001  0.5888048493882936  0.7158610204793915  1.0000
  C   C19       1.0  0.4917394653986414  0.9111951505449511  0.21586102052729722  1.0000
  C   C20       1.0  0.00826053458661738  0.411195149760406  0.28413897942479704  1.0000
  C   C21       1.0  0.5441135737686068  0.09818462929826112  0.8417605904936507  1.0000
  C   C22       1.0  0.955886426190418  0.5981846276624156  0.6582394096022209  1.0000
  C   C23       1.0  0.4558864262051591  0.9018153722708292  0.15823940965012662  1.0000
  C   C24       1.0  0.04411357378009966  0.401815371486284  0.34176059030196765  1.0000
  C   C25       1.0  0.19627411103338802  0.12510603085061686  0.4869867582482725  1.0000
  C   C26       1.0  0.30372588895187075  0.6251060292147714  0.013013241703821827  1.0000
  C   C27       1.0  0.8037258889371295  0.8748939707184734  0.5130132416559161  1.0000
  C   C28       1.0  0.6962741110218951  0.37489396993392826  0.9869867584399555  1.0000
  C   C29       1.0  0.49680506712495465  0.5770590715681357  0.6105160440567027  1.0000
  C   C30       1.0  0.003194932043310366  0.0770590732039811  0.8894839559713049  1.0000
  C   C31       1.0  0.5031949328488111  0.422940927580564  0.3894839560870746  1.0000
  C   C32       1.0  0.9968050679272072  0.9229409283651091  0.11051604393288358  1.0000
  C   C33       1.0  0.6036748848942229  0.39758481680905233  0.617165851703796  1.0000
  C   C34       1.0  0.8963251150648017  0.8975848175935974  0.8828341483920756  1.0000
  C   C35       1.0  0.3963251150795429  0.6024151823396473  0.38283414843998137  1.0000
  C   C36       1.0  0.10367488490896418  0.10241518397549278  0.1171658517517017  1.0000
  C   C37       1.0  0.3125527511383525  0.9166898703723325  0.5411906431445084  1.0000
  C   C38       1.0  0.1874472489555735  0.4166898695877873  0.958809356882489  1.0000
  C   C39       1.0  0.687447248832165  0.08331012877636722  0.45880935675968015  1.0000
  C   C40       1.0  0.8125527510149441  0.5833101295609123  0.04119064302169947  1.0000
  C   C41       1.0  0.6331992781822918  0.33000789955921694  0.648934801752699  1.0000
  C   C42       1.0  0.8668007217734846  0.830007900343762  0.8510651981035838  1.0000
  C   C43       1.0  0.3668007217882257  0.6699920995894827  0.3510651981514895  1.0000
  C   C44       1.0  0.13319927819703306  0.16999210122532812  0.14893480180060478  1.0000
  C   C45       1.0  0.15195429322039183  0.19971280790343726  0.5175032071389875  1.0000
  C   C46       1.0  0.34804570687353414  0.6997128086879824  0.98249679288801  1.0000
  C   C47       1.0  0.8480457067533741  0.8002871912452624  0.4824967930047899  1.0000
  C   C48       1.0  0.6519542930969834  0.3002871904607173  0.017503207016178562  1.0000
  C   C49       1.0  0.46607737705566565  0.6362890807514305  0.576001305906075  1.0000
  C   C50       1.0  0.033922623038260345  0.13628908238727597  0.9239986941209225  1.0000
  C   C51       1.0  0.5339226229148518  0.36371091839726916  0.42399869399811363  1.0000
  C   C52       1.0  0.9660773769355055  0.8637109191818142  0.0760013060228548  1.0000
  C   C53       1.0  0.3023367875833469  0.9361702410136822  0.483857655533472  1.0000
  C   C54       1.0  0.1976632124019119  0.43617024264952764  0.016142344418622282  1.0000
  C   C55       1.0  0.6976632123871707  0.06382975813501748  0.5161423443707166  1.0000
  C   C56       1.0  0.8023367875718539  0.5638297589195627  0.9838576557251549  1.0000
  C   C57       1.0  0.36181277135163464  0.8291743154135561  0.5113534565740597  1.0000
  C   C58       1.0  0.13818722874229136  0.3291743170494016  0.9886465434529378  1.0000
  C   C59       1.0  0.6381872286188829  0.1708256837351435  0.4886465433301288  1.0000
  C   C60       1.0  0.8618127712314744  0.6708256845196886  0.011353456690839635  1.0000
  C   C61       1.0  0.4253836203299997  0.6860305247863695  0.6363678202911568  1.0000
  C   C62       1.0  0.07461637976392625  0.18603052400182432  0.8636321797358407  1.0000
  C   C63       1.0  0.5746163796405177  0.3139694767827208  0.3636321796130318  1.0000
  C   C64       1.0  0.9253836202098396  0.8139694751468753  0.13636782040793666  1.0000
  C   C65       1.0  0.4626882924815005  0.6091160481349983  0.6673784339738043  1.0000
  C   C66       1.0  0.03731170760917718  0.10911604735045322  0.8326215658136045  1.0000
  C   C67       1.0  0.537311707489017  0.3908839510137013  0.3326215659303842  1.0000
  C   C68       1.0  0.9626882923613403  0.8908839517982464  0.16737843409058417  1.0000
  N   N1        1.0  0.20941189422091766  0.0973551009426384  0.5440414376495363  1.0000
  N   N2        1.0  0.2905881058730084  0.5973551017271834  0.955958562377461  1.0000
  N   N3        1.0  0.7905881057528482  0.9026448982060613  0.455958562494241  1.0000
  N   N4        1.0  0.7094118940975092  0.40264489742151616  0.04404143752672739  1.0000
  N   N5        1.0  0.5640231309736605  0.43266472806732426  0.6736490920368247  1.0000
  N   N6        1.0  0.9359768689821159  0.9326647288518694  0.8263509078194581  1.0000
  N   N7        1.0  0.43597686899685706  0.5673352710813754  0.32635090786736387  1.0000
  N   N8        1.0  0.06402313098840172  0.06733527271722085  0.17364909208473037  1.0000
  N   N9        1.0  0.3642447868535735  0.8259638294982197  0.5704927554837506  1.0000
  N   N10       1.0  0.13575521324035253  0.32596382871367446  0.9295072445432468  1.0000
  N   N11       1.0  0.635755213116944  0.17403616965048008  0.429507244420438  1.0000
  N   N12       1.0  0.864244786730165  0.6740361704350252  0.07049275536094167  1.0000
  O   O1        1.0  0.5297094116235831  0.5173264755456549  0.5543117630159188  1.0000
  O   O2        1.0  0.9702905883354416  0.01732647718150032  0.9456882370799528  1.0000
  O   O3        1.0  0.4702905883501828  0.4826735236030448  0.44568823712785854  1.0000
  O   O4        1.0  0.029709411638324308  0.9826735243875899  0.0543117630638245  1.0000
  F   F1        1.0  0.26745096729847434  0.6262110101183893  0.82519031732295  1.0000
  F   F2        1.0  0.23254903279545167  0.1262110093338442  0.6748096827040475  1.0000
  F   F3        1.0  0.7325490326720432  0.3737889890303104  0.1748096825812386  1.0000
  F   F4        1.0  0.7674509671750658  0.8737889898148554  0.325190317200141  1.0000
  F   F5        1.0  0.3297448367808889  0.8041286802414829  0.7656848914571245  1.0000
  F   F6        1.0  0.17025516331303717  0.3041286818773283  0.7343151085698729  1.0000
  F   F7        1.0  0.6702551631896287  0.19587131890721682  0.234315108447064  1.0000
  F   F8        1.0  0.8297448366574803  0.695871319691762  0.2656848913343156  1.0000
  F   F9        1.0  0.6799981556728003  0.37096056660608695  0.8066316439478957  1.0000
  F   F10       1.0  0.8200018442862244  0.8709605673906321  0.693368356147976  1.0000
  F   F11       1.0  0.3200018443009657  0.6290394325426126  0.19336835619588166  1.0000
  F   F12       1.0  0.17999815568754146  0.12903943175806762  0.3066316439958014  1.0000
  F   F13       1.0  0.6153586699542468  0.2015186395187992  0.8666080915526774  1.0000
  F   F14       1.0  0.8846413300047777  0.7015186403033443  0.6333919085431943  1.0000
  F   F15       1.0  0.38464133001627066  0.7984813596299005  0.1333919083515112  1.0000
  F   F16       1.0  0.11535866996898805  0.2984813612657459  0.3666080916005831  1.0000
  Br  Br1       1.0  0.11436969266184348  0.2823735676753304  0.4499101655322504  1.0000
  Br  Br2       1.0  0.38563030732341536  0.7823735660394849  0.050089834419843896  1.0000
  Br  Br3       1.0  0.885630307308674  0.7176264338937598  0.5500898343719381  1.0000
  Br  Br4       1.0  0.6143696926471023  0.21762643310921473  0.9499101654843446  1.0000
  I   I1        1.0  0.38496203410478647  0.7800558678075195  0.894436951785687  1.0000
  I   I2        1.0  0.11503796598913957  0.2800558694433649  0.6055630482413106  1.0000
  I   I3        1.0  0.6150379658689794  0.2199441313411802  0.10556304835809037  1.0000
  I   I4        1.0  0.8849620339813778  0.7199441321257253  0.39443695166287807  1.0000
  I   I5        1.0  0.5545501748788946  0.23036464367182216  0.7371224317300523  1.0000
  I   I6        1.0  0.9454498250801301  0.7303646444563673  0.7628775683658193  1.0000
  I   I7        1.0  0.4454498250948713  0.769635357897268  0.26287756841372506  1.0000
  I   I8        1.0  0.05455017489363577  0.26963535711272296  0.237122431777958  1.0000
