data_image0
_chemical_formula_structural       H48C48O24F12I4
_chemical_formula_sum              "H48 C48 O24 F12 I4"
_cell_length_a       10.103854940731207
_cell_length_b       12.4989880136892
_cell_length_c       13.068799668926246
_cell_angle_alpha    90.64429541485751
_cell_angle_beta     68.94794733418242
_cell_angle_gamma    73.23121297559634

_space_group_name_H-M_alt    "P 1"
_space_group_IT_number       1

loop_
  _space_group_symop_operation_xyz
  'x, y, z'

loop_
  _atom_site_type_symbol
  _atom_site_label
  _atom_site_symmetry_multiplicity
  _atom_site_fract_x
  _atom_site_fract_y
  _atom_site_fract_z
  _atom_site_occupancy
  H   H1        1.0  0.4274650541002814  0.5065274052654615  0.3044765665158707  1.0000
  H   H2        1.0  0.5725349465649305  0.4934725942116389  0.6955234330680481  1.0000
  H   H3        1.0  0.7797042123923155  0.5682399498824261  0.1984855060250034  1.0000
  H   H4        1.0  0.22029578655671905  0.4317600505319554  0.8015144943856949  1.0000
  H   H5        1.0  0.038377524550497304  0.7710476074795843  0.4897356143931906  1.0000
  H   H6        1.0  0.9616224761147149  0.22895239199751607  0.5102643851907281  1.0000
  H   H7        1.0  0.36144230779866543  0.5848989304712257  0.059192211960968404  1.0000
  H   H8        1.0  0.6385576921371022  0.41510106994611673  0.9408077884538513  1.0000
  H   H9        1.0  0.2487985773184629  0.5324558844959607  0.0069645976616689986  1.0000
  H   H10       1.0  0.7512014220567781  0.4675441158143058  0.9930354019222826  1.0000
  H   H11       1.0  0.3762330116693649  0.4400067078640796  0.0558524539161112  1.0000
  H   H12       1.0  0.6237669882664025  0.5599932925532628  0.9441475464987085  1.0000
  H   H13       1.0  0.9898878943860454  0.8972275089271735  0.0820746973015376  1.0000
  H   H14       1.0  0.010112105549722335  0.10277249149016886  0.9179253031132821  1.0000
  H   H15       1.0  0.8444345379719763  0.6614818194124634  0.026989885235624827  1.0000
  H   H16       1.0  0.15556546238999788  0.3385181809007641  0.973010114352448  1.0000
  H   H17       1.0  0.16543520563911027  0.7086594371687349  0.05090727814148937  1.0000
  H   H18       1.0  0.8345647942966573  0.29134056324860763  0.9490927222733303  1.0000
  H   H19       1.0  0.7446816292314297  0.8442646329282874  0.4120337755145525  1.0000
  H   H20       1.0  0.2553183710075756  0.15573536665292786  0.5879662248961132  1.0000
  H   H21       1.0  0.17775043380244251  0.3708451581377896  0.17126109672742432  1.0000
  H   H22       1.0  0.8222495651465919  0.6291548422765919  0.828738903683274  1.0000
  H   H23       1.0  0.03777996078701839  0.46905348805361385  0.13636077161593171  1.0000
  H   H24       1.0  0.962220039451987  0.5309465115276013  0.8636392287947339  1.0000
  H   H25       1.0  0.014629288182767783  0.4591010730653735  0.27645896017055505  1.0000
  H   H26       1.0  0.985370711753  0.5408989273519689  0.7235410402442646  1.0000
  H   H27       1.0  0.7762054698954474  0.9699831163111787  0.2626855156590139  1.0000
  H   H28       1.0  0.2237945307697648  0.030016883165921666  0.737314483924905  1.0000
  H   H29       1.0  0.669121043060671  0.8460310474849884  0.02033181642357447  1.0000
  H   H30       1.0  0.330878956191601  0.15396895209326603  0.97966818398297  1.0000
  H   H31       1.0  0.20484889983471877  0.595751212703949  0.6610926547962584  1.0000
  H   H32       1.0  0.7951511008304933  0.4042487867731513  0.33890734478766027  1.0000
  H   H33       1.0  0.2730115579981386  0.9520107667541712  0.5493375934766894  1.0000
  H   H34       1.0  0.7269884419376289  0.04798923366317131  0.4506624069381303  1.0000
  H   H35       1.0  0.4397617767391438  0.9649070289008109  0.4473149276586856  1.0000
  H   H36       1.0  0.5602382239260684  0.035092970576289344  0.5526850719252332  1.0000
  H   H37       1.0  0.4399020133612406  0.837943223909526  0.506472960356673  1.0000
  H   H38       1.0  0.5600979873039712  0.16205677556757433  0.4935270392272459  1.0000
  H   H39       1.0  0.4376068652008049  0.9349637885516737  0.17888897102552334  1.0000
  H   H40       1.0  0.5623931354644073  0.06503621092542664  0.8211110285583955  1.0000
  H   H41       1.0  0.20206663507732564  0.9568877496551152  0.2874465410245969  1.0000
  H   H42       1.0  0.7979333655878862  0.043112249821985166  0.712553458559322  1.0000
  H   H43       1.0  0.2964301962128989  0.03794391588640195  0.33040245322666667  1.0000
  H   H44       1.0  0.7035698041490753  0.9620560844268257  0.6695975463614061  1.0000
  H   H45       1.0  0.13369969327936487  0.01675588211582967  0.42705573784395867  1.0000
  H   H46       1.0  0.8663003066564028  0.9832441183015127  0.572944262570861  1.0000
  H   H47       1.0  0.3622243273939473  0.252290664634487  0.35652791682728296  1.0000
  H   H48       1.0  0.6377756728450582  0.7477093349467282  0.6434720835833827  1.0000
  C   C1        1.0  0.33030982122731334  0.8709053881476837  0.38330656556403164  1.0000
  C   C2        1.0  0.6696901787084544  0.1290946122696586  0.616693434850788  1.0000
  C   C3        1.0  0.5746277327131508  0.7023518040698921  0.2838370402146078  1.0000
  C   C4        1.0  0.42537226752585466  0.2976481955113232  0.716162960196058  1.0000
  C   C5        1.0  0.7054090825611508  0.6489175290387844  0.19326460660818076  1.0000
  C   C6        1.0  0.29459091737461685  0.3510824713785581  0.806735393806639  1.0000
  C   C7        1.0  0.9401910999639773  0.7088220266752968  0.3134393179885863  1.0000
  C   C8        1.0  0.059808900275028075  0.29117797290591835  0.6865606824220793  1.0000
  C   C9        1.0  0.06300775884391685  0.6645264697481148  0.2130628075340461  1.0000
  C   C10       1.0  0.9369922415180575  0.3354735305651128  0.7869371920540267  1.0000
  C   C11       1.0  0.23805829144027083  0.7921122744040067  0.42968950124947647  1.0000
  C   C12       1.0  0.7619417075087634  0.20788772601037486  0.5703104991612219  1.0000
  C   C13       1.0  0.17673283121585256  0.5451403947793931  0.18591194901981903  1.0000
  C   C14       1.0  0.8232671691461216  0.45485960553383453  0.8140880505682538  1.0000
  C   C15       1.0  0.29807474346517515  0.5253022856915192  0.06990225561526484  1.0000
  C   C16       1.0  0.7019252567738303  0.4746977138896961  0.9300977447954009  1.0000
  C   C17       1.0  0.9742316288708627  0.8450668394963254  0.14861645039263788  1.0000
  C   C18       1.0  0.02576837007817169  0.1549331609180561  0.8513835500180604  1.0000
  C   C19       1.0  0.7407323294025159  0.7006133866975977  0.09750267911719007  1.0000
  C   C20       1.0  0.25926767126269606  0.29938661277950285  0.9024973204667287  1.0000
  C   C21       1.0  0.24612345379994252  0.5278488421720218  0.2734671493402928  1.0000
  C   C22       1.0  0.753876546135825  0.4721511582453207  0.7265328510745268  1.0000
  C   C23       1.0  0.07547717504760626  0.7373297903203069  0.13144099928772157  1.0000
  C   C24       1.0  0.9245228248881613  0.2626702100970357  0.868559001127098  1.0000
  C   C25       1.0  0.8377207664405392  0.8161747586852022  0.3324168347882363  1.0000
  C   C26       1.0  0.16227923422467283  0.18382524079189827  0.6675831647956825  1.0000
  C   C27       1.0  0.09641702400803366  0.4557945841979945  0.19347956789090806  1.0000
  C   C28       1.0  0.9035829766571783  0.5442054152791059  0.8065204316930107  1.0000
  C   C29       1.0  0.8547271814475349  0.8855063047027647  0.2491482954390751  1.0000
  C   C30       1.0  0.14527281848823267  0.11449369571457785  0.7508517049757446  1.0000
  C   C31       1.0  0.6432668322533021  0.8038794874891251  0.09413119540724532  1.0000
  C   C32       1.0  0.3567331681086722  0.19612051282410248  0.9058688041808274  1.0000
  C   C33       1.0  0.5448018612823692  0.18424123267279596  0.22653690173090316  1.0000
  C   C34       1.0  0.4551981376666651  0.8157587677415856  0.7734630986797952  1.0000
  C   C35       1.0  0.10732725158856656  0.7176476701289485  0.7852941268487376  1.0000
  C   C36       1.0  0.8926727473604678  0.28235233028543316  0.21470587356196083  1.0000
  C   C37       1.0  0.00617998381275571  0.8425168551753404  0.8085744564817491  1.0000
  C   C38       1.0  0.9938200164262496  0.15748314440587494  0.19142554392891675  1.0000
  C   C39       1.0  0.597716930020537  0.15257118769642655  0.09951857275567673  1.0000
  C   C40       1.0  0.4022830702184682  0.8474288118847887  0.9004814276549888  1.0000
  C   C41       1.0  0.3738072994057129  0.9076768494999419  0.47743935333936577  1.0000
  C   C42       1.0  0.626192701259499  0.09232314997715857  0.522560646244553  1.0000
  C   C43       1.0  0.4724241693016828  0.8065946427983096  0.2837827013741557  1.0000
  C   C44       1.0  0.5275758309373224  0.1934053567829057  0.7162172990365101  1.0000
  C   C45       1.0  0.5113642564149655  0.8547067298755971  0.18501547867726237  1.0000
  C   C46       1.0  0.48863574394700865  0.14529327043763046  0.8149845209108103  1.0000
  C   C47       1.0  0.23548378182378937  0.9766670512546642  0.35458785683683636  1.0000
  C   C48       1.0  0.7645162188414226  0.023332948222436204  0.6454121427470825  1.0000
  O   O1        1.0  0.7524477550450497  0.5321385087081508  0.37430882284353023  1.0000
  O   O2        1.0  0.24755224489071795  0.46786149170919167  0.6256911775712894  1.0000
  O   O3        1.0  0.6888273633508473  0.7174321637574633  0.5232765980518536  1.0000
  O   O4        1.0  0.3111726355981871  0.2825678366569182  0.4767234023588447  1.0000
  O   O5        1.0  0.5025173138404557  0.49156066651886526  0.38570881900275367  1.0000
  O   O6        1.0  0.4974826865215184  0.5084393337943623  0.6142911805853192  1.0000
  O   O7        1.0  0.9540511039550443  0.7017625175670844  0.54248836618636  1.0000
  O   O8        1.0  0.04594889598072324  0.29823748285025803  0.45751163422845964  1.0000
  O   O9        1.0  0.3886126265298668  0.5152933370593866  0.23959744236441705  1.0000
  O   O10       1.0  0.6113873737091386  0.48470666252182876  0.7604025580462487  1.0000
  O   O11       1.0  0.16890476883905206  0.5246583501421053  0.37192038871143157  1.0000
  O   O12       1.0  0.8310952310967156  0.4753416502752372  0.6280796117033881  1.0000
  O   O13       1.0  0.29663237872485454  0.6955508779323469  0.4489704304513576  1.0000
  O   O14       1.0  0.7033676216371197  0.3044491223808806  0.5510295691367151  1.0000
  O   O15       1.0  0.09584968080714602  0.8299530949701973  0.4506725920087824  1.0000
  O   O16       1.0  0.9041503181418883  0.17004690544418424  0.549327408401916  1.0000
  O   O17       1.0  0.1560510235941011  0.6819578465412359  0.6797495528017459  1.0000
  O   O18       1.0  0.8439489763416664  0.3180421538761065  0.32025044761307386  1.0000
  O   O19       1.0  0.39928995293887  0.23095378571730502  0.27017053334763935  1.0000
  O   O20       1.0  0.600710046436371  0.7690462145929616  0.729829466236312  1.0000
  O   O21       1.0  0.12416375462683202  0.6658521821209717  0.8608614534975465  1.0000
  O   O22       1.0  0.8758362447484093  0.3341478181892948  0.13913854608640477  1.0000
  O   O23       1.0  0.6336164129560746  0.16525780457405964  0.27262031377310936  1.0000
  O   O24       1.0  0.3663835874058995  0.834742195739168  0.7273796858149635  1.0000
  F   F1        1.0  0.04532548185587502  0.9015730000354021  0.7226010930245305  1.0000
  F   F2        1.0  0.9546745185060994  0.09842700027782543  0.2773989065635423  1.0000
  F   F3        1.0  0.5189998203322091  0.09038792766111495  0.07563732026932818  1.0000
  F   F4        1.0  0.4810001800297652  0.9096120726521126  0.9243626793187445  1.0000
  F   F5        1.0  0.00517176097299327  0.8975025379961834  0.8987725823336372  1.0000
  F   F6        1.0  0.994828239388981  0.10249746231704407  0.10122741725443549  1.0000
  F   F7        1.0  0.5775549870745418  0.2471463256385241  0.048247807078085826  1.0000
  F   F8        1.0  0.42244501230069936  0.7528536746717425  0.9517521925058656  1.0000
  F   F9        1.0  0.7436739196048048  0.09156437387604964  0.0545171593994837  1.0000
  F   F10       1.0  0.25632608106040716  0.9084356256010507  0.9454828401844351  1.0000
  F   F11       1.0  0.8620435488482732  0.8444305415595488  0.8299190623378901  1.0000
  F   F12       1.0  0.1379564513907322  0.1555694580216666  0.1700809380727754  1.0000
  I   I1        1.0  0.8877719327642657  0.6262141706895832  0.4595787640154874  1.0000
  I   I2        1.0  0.11222806747473951  0.37378582889163203  0.5404212363951783  1.0000
  I   I3        1.0  0.5490906707161538  0.6137834527608728  0.42645446963507183  1.0000
  I   I4        1.0  0.4509093296458204  0.38621654755235485  0.5735455299530009  1.0000
