data_image0
_chemical_formula_structural       H22C22N14O2S2
_chemical_formula_sum              "H22 C22 N14 O2 S2"
_cell_length_a       5.572512112562315
_cell_length_b       10.073664271188868
_cell_length_c       11.25016303543686
_cell_angle_alpha    80.05528978583165
_cell_angle_beta     80.99023894902373
_cell_angle_gamma    87.19985362925812

_space_group_name_H-M_alt    "P 1"
_space_group_IT_number       1

loop_
  _space_group_symop_operation_xyz
  'x, y, z'

loop_
  _atom_site_type_symbol
  _atom_site_label
  _atom_site_symmetry_multiplicity
  _atom_site_fract_x
  _atom_site_fract_y
  _atom_site_fract_z
  _atom_site_occupancy
  H   H1        1.0  0.5410315275663622  0.6429048930163714  0.47904656367461024  1.0000
  H   H2        1.0  0.4589684721377225  0.35709510722602533  0.5209534358394176  1.0000
  H   H3        1.0  0.23351963543447532  0.6059675872366853  0.4673311605628749  1.0000
  H   H4        1.0  0.7664803642800817  0.39403241301273456  0.5326688398380933  1.0000
  H   H5        1.0  0.324817656461864  0.5928007876914818  0.6158460026542093  1.0000
  H   H6        1.0  0.6751823432526931  0.40719921255793823  0.384153997746759  1.0000
  H   H7        1.0  0.8729056450075655  0.8991638489265933  0.5940374932292029  1.0000
  H   H8        1.0  0.12709435470699165  0.10083615132282675  0.40596250717176535  1.0000
  H   H9        1.0  0.9386028548555783  0.7331097979173005  0.6749226060302159  1.0000
  H   H10       1.0  0.06139714484850644  0.2668902023250963  0.3250773934838119  1.0000
  H   H11       1.0  0.8710068832886889  0.7517155319356525  0.5215840658660241  1.0000
  H   H12       1.0  0.12899311641539565  0.2482844683067442  0.4784159336480036  1.0000
  H   H13       1.0  0.4978468664553665  0.22001510564046406  0.22475142183359728  1.0000
  H   H14       1.0  0.5021531332487182  0.7799848946019327  0.7752485776804305  1.0000
  H   H15       1.0  0.34774410267212463  0.15122048244478237  0.012340722309079571  1.0000
  H   H16       1.0  0.652255897090742  0.848779516796587  0.9876592782501948  1.0000
  H   H17       1.0  0.15519840868446574  0.3788519089361607  0.9983687107997475  1.0000
  H   H18       1.0  0.844801592895126  0.6211480903093677  0.0016312896126733755  1.0000
  H   H19       1.0  0.731244733938206  0.41152177473706325  0.10356499649810808  1.0000
  H   H20       1.0  0.26875526576587866  0.5884782255053335  0.8964350030159197  1.0000
  H   H21       1.0  0.5323076206967458  0.9366189844534284  0.30941733407538735  1.0000
  H   H22       1.0  0.467692379007339  0.06338101578896838  0.6905826654386406  1.0000
  C   C1        1.0  0.35042237797000997  0.6469238568094047  0.5215190323869071  1.0000
  C   C2        1.0  0.6495776217445471  0.3530761434400151  0.47848096801406126  1.0000
  C   C3        1.0  0.9527558867295338  0.7989079821708319  0.5859232108755046  1.0000
  C   C4        1.0  0.047244112974550764  0.20109201807156485  0.41407678863852315  1.0000
  C   C5        1.0  0.6821299978636414  0.20356742183068097  0.18036128131130152  1.0000
  C   C6        1.0  0.31787000189922526  0.7964325774106884  0.8196387192479728  1.0000
  C   C7        1.0  0.8718458141043394  0.854587233447279  0.23939598444788504  1.0000
  C   C8        1.0  0.12815418564805503  0.14541276578706722  0.7606040152244489  1.0000
  C   C9        1.0  0.08684306997098516  0.9146565866437207  0.15857296491121986  1.0000
  C   C10       1.0  0.9131569297918816  0.08534341259764874  0.8414270356480544  1.0000
  C   C11       1.0  0.1645693154162164  0.1656779679267021  0.05956525257768908  1.0000
  C   C12       1.0  0.8354306861150659  0.8343220323268769  0.9404347476764255  1.0000
  C   C13       1.0  0.03384438798281502  0.05673658878692032  0.12962817506746344  1.0000
  C   C14       1.0  0.9661556117800518  0.9432634104544491  0.8703718254918109  1.0000
  C   C15       1.0  0.7938351751695585  0.07627753381698056  0.19008733551077753  1.0000
  C   C16       1.0  0.20616482453452617  0.923722466425416  0.8099126640032502  1.0000
  C   C17       1.0  0.05472246013408315  0.6541554023642429  0.25140472938028785  1.0000
  C   C18       1.0  0.945277539580474  0.3458445978851769  0.7485952710206805  1.0000
  C   C19       1.0  0.054022097091558745  0.29333999246365  0.05172331735048331  1.0000
  C   C20       1.0  0.9459779026229985  0.7066600077857699  0.948276683050485  1.0000
  C   C21       1.0  0.8163613195238267  0.31141375722988485  0.1109889948004387  1.0000
  C   C22       1.0  0.18363868023904015  0.6885862420114846  0.8890110057588358  1.0000
  N   N1        1.0  0.28232793349174506  0.8431344971002739  0.1256324840683833  1.0000
  N   N2        1.0  0.7176720662711217  0.1568655021410956  0.874367516490891  1.0000
  N   N3        1.0  0.7032883325223337  0.9536474752965064  0.255760169257619  1.0000
  N   N4        1.0  0.2967116671922234  0.046352524952913476  0.7442398311433492  1.0000
  N   N5        1.0  0.8539739077862315  0.7254293541322171  0.28752032821012563  1.0000
  N   N6        1.0  0.14602609191785312  0.2745706461101797  0.7124796713039023  1.0000
  N   N7        1.0  0.25581119070127106  0.7127055851467041  0.17453745565571546  1.0000
  N   N8        1.0  0.7441888090132861  0.28729441510271575  0.8254625447452528  1.0000
  N   N9        1.0  0.4276082277884245  0.615648368363553  0.15512637783604732  1.0000
  N   N10       1.0  0.5723917719261326  0.3843516318858669  0.8448736225649209  1.0000
  N   N11       1.0  0.10679876568168939  0.5221753945389024  0.2787084368165647  1.0000
  N   N12       1.0  0.8932012340223952  0.4778246057034942  0.7212915626974631  1.0000
  N   N13       1.0  0.3332607984569101  0.5036118853609921  0.21850025826582428  1.0000
  N   N14       1.0  0.6667392012576471  0.4963881148884277  0.7814997421351438  1.0000
  O   O1        1.0  0.26953977096784765  0.8894289345697418  0.39298093845160514  1.0000
  O   O2        1.0  0.730460228736237  0.11057106567265493  0.6070190610624226  1.0000
  S   S1        1.0  0.26843354730847324  0.820993979906179  0.5255111427186858  1.0000
  S   S2        1.0  0.7315664523956116  0.1790060203362176  0.474488856795342  1.0000
