data_image0
_chemical_formula_structural       H76C132N4O4F16I8
_chemical_formula_sum              "H76 C132 N4 O4 F16 I8"
_cell_length_a       11.284303708721545
_cell_length_b       14.786613403501146
_cell_length_c       18.153099789344544
_cell_angle_alpha    67.41583459133264
_cell_angle_beta     77.72572305746893
_cell_angle_gamma    80.03995164177006

_space_group_name_H-M_alt    "P 1"
_space_group_IT_number       1

loop_
  _space_group_symop_operation_xyz
  'x, y, z'

loop_
  _atom_site_type_symbol
  _atom_site_label
  _atom_site_symmetry_multiplicity
  _atom_site_fract_x
  _atom_site_fract_y
  _atom_site_fract_z
  _atom_site_occupancy
  H   H1        1.0  0.9444223994001271  0.12082337431261266  0.4635620946344895  1.0000
  H   H2        1.0  0.05557760043088761  0.8791766256797896  0.5364379056790186  1.0000
  H   H3        1.0  0.8294654249392724  0.9916695510346121  0.46303264128350385  1.0000
  H   H4        1.0  0.17053457504411634  0.00833044827139447  0.5369673590294695  1.0000
  H   H5        1.0  0.13218890459504407  0.61059432336946  0.6674851063282204  1.0000
  H   H6        1.0  0.8678110952359708  0.38940567662294234  0.33251489398528755  1.0000
  H   H7        1.0  0.2578696539624631  0.7331290389379213  0.6649104263504116  1.0000
  H   H8        1.0  0.7421303460144338  0.2668709613207474  0.33508957335861633  1.0000
  H   H9        1.0  0.5633596323990633  0.8168304260187362  0.44375610249542236  1.0000
  H   H10       1.0  0.4366403674319515  0.18316957397366582  0.5562438978180858  1.0000
  H   H11       1.0  0.4044537038909321  0.7743793631227962  0.6914174370225075  1.0000
  H   H12       1.0  0.5955462960859649  0.22562063713587227  0.3085825626865206  1.0000
  H   H13       1.0  0.6874097195823834  0.9368113088332211  0.44244617437262884  1.0000
  H   H14       1.0  0.31259028024863117  0.06318869115918108  0.5575538259408791  1.0000
  H   H15       1.0  0.5165283110930852  0.6763404535145551  0.4714924861349884  1.0000
  H   H16       1.0  0.4834716888903036  0.3236595457914515  0.5285075141779849  1.0000
  H   H17       1.0  0.7043586662227338  0.15721269450813943  0.6599495449295263  1.0000
  H   H18       1.0  0.29564133375416296  0.8427873057505291  0.34005045477950185  1.0000
  H   H19       1.0  0.1931514281995632  0.5253305483672492  0.5687532143865252  1.0000
  H   H20       1.0  0.8068485716314513  0.4746694516251529  0.4312467859269829  1.0000
  H   H21       1.0  0.5774460868004863  0.03232893911938534  0.6666502135585665  1.0000
  H   H22       1.0  0.42255391303052836  0.967671060873017  0.3333497867549416  1.0000
  H   H23       1.0  0.5296416124940807  0.8928225483111502  0.6910228213624137  1.0000
  H   H24       1.0  0.4703583874828162  0.1071774519475184  0.3089771783466143  1.0000
  H   H25       1.0  0.3870295121413154  0.5580824101811864  0.47152267273970294  1.0000
  H   H26       1.0  0.6129704878355817  0.44191759007748194  0.5284773269693251  1.0000
  H   H27       1.0  0.8839841407290121  0.7679313446138478  0.19592422634403847  1.0000
  H   H28       1.0  0.1160158591020027  0.23206865537855428  0.8040757739694696  1.0000
  H   H29       1.0  0.06675001676399482  0.7896724415430972  0.955522651014514  1.0000
  H   H30       1.0  0.9332499833652763  0.21032755802917558  0.04447734869397928  1.0000
  H   H31       1.0  0.3591272434140221  0.11028881448990867  0.9387177957287068  1.0000
  H   H32       1.0  0.6408727565693667  0.8897111848160979  0.06128220458426643  1.0000
  H   H33       1.0  0.9453003990079245  0.6584760739867113  0.9654945608290579  1.0000
  H   H34       1.0  0.05469960082309007  0.341523926005691  0.03450543948445012  1.0000
  H   H35       1.0  0.3329120981675055  0.9571004233394278  0.9881196855029561  1.0000
  H   H36       1.0  0.6670879018093915  0.042899576919240685  0.011880314206071853  1.0000
  H   H37       1.0  0.17934051484452718  0.1011945989113422  0.1758549418106093  1.0000
  H   H38       1.0  0.8206594849864874  0.89880540108106  0.8241450585028988  1.0000
  H   H39       1.0  0.770085369571736  0.6375189705530139  0.19579797492871442  1.0000
  H   H40       1.0  0.2299146302592785  0.3624810294393885  0.8042020253847936  1.0000
  H   H41       1.0  0.9184334699106417  0.9241068968137661  0.15022372868134867  1.0000
  H   H42       1.0  0.08156653006625521  0.07589310344490231  0.8497762710276794  1.0000
  H   H43       1.0  0.42792141401928907  0.3183753114335639  0.033300904572593146  1.0000
  H   H44       1.0  0.5720785861099821  0.6816246881387087  0.9666990951359001  1.0000
  H   H45       1.0  0.4682035103050693  0.24858736693334035  0.9245137135834824  1.0000
  H   H46       1.0  0.5317964895259453  0.7514126330590619  0.07548628673002568  1.0000
  H   H47       1.0  0.2848599477523886  0.2426271241279956  0.1596756745123271  1.0000
  H   H48       1.0  0.7151400522245083  0.757372876130673  0.840324325196701  1.0000
  H   H49       1.0  0.036110036405851205  0.052063421213392205  0.14411571697145031  1.0000
  H   H50       1.0  0.9638899634251634  0.94793657877901  0.8558842833420577  1.0000
  H   H51       1.0  0.21520568858799727  0.829801995876001  0.9935848813434064  1.0000
  H   H52       1.0  0.7847943113888997  0.1701980043826674  0.0064151183656217005  1.0000
  H   H53       1.0  0.5136912039565259  0.9311265315640759  0.8656420367434433  1.0000
  H   H54       1.0  0.486308796020371  0.06887346869459265  0.13435796296558478  1.0000
  H   H55       1.0  0.9352158736914802  0.947568924067892  0.6617513540300126  1.0000
  H   H56       1.0  0.06478412628541683  0.05243107619077654  0.3382486456790156  1.0000
  H   H57       1.0  0.1008949234186623  0.2131222005897204  0.6257590688538514  1.0000
  H   H58       1.0  0.8991050765582348  0.7868777996689481  0.37424093085517685  1.0000
  H   H59       1.0  0.6065203245682427  0.07956762135800333  0.8428930665810761  1.0000
  H   H60       1.0  0.39347967540865425  0.9204323789006653  0.1571069331279519  1.0000
  H   H61       1.0  0.3749007537790166  0.34581185524364705  0.6692096578333209  1.0000
  H   H62       1.0  0.6250992460519978  0.6541881447487552  0.3307903424801871  1.0000
  H   H63       1.0  0.5242214717361778  0.24395551998083254  0.7553135677344908  1.0000
  H   H64       1.0  0.47577852824071903  0.7560444802778359  0.24468643197453727  1.0000
  H   H65       1.0  0.34501923086639574  0.6671117644256809  0.8999366277750055  1.0000
  H   H66       1.0  0.6549807691105012  0.3328882358329877  0.10006337193402257  1.0000
  H   H67       1.0  0.19396354450701725  0.35952861902049343  0.6056713578825572  1.0000
  H   H68       1.0  0.8060364553239974  0.6404713809719088  0.3943286424309509  1.0000
  H   H69       1.0  0.019783571491089776  0.7830766267302716  0.7471737794858923  1.0000
  H   H70       1.0  0.9802164284922991  0.21692337257573488  0.252826220827081  1.0000
  H   H71       1.0  0.16963146173049284  0.6810784460144969  0.8329736428629602  1.0000
  H   H72       1.0  0.8303685381005219  0.31892155397790556  0.16702635745054784  1.0000
  H   H73       1.0  0.439331793219289  0.8136383900025154  0.880851786948057  1.0000
  H   H74       1.0  0.5606682066117256  0.18636160998988688  0.11914821336545109  1.0000
  H   H75       1.0  0.025579739878187662  0.0970461055590916  0.6414762378605107  1.0000
  H   H76       1.0  0.9744202601052011  0.902953893746915  0.35852376245246265  1.0000
  C   C1        1.0  0.43816606860070323  0.4443279231785035  0.2616222038651296  1.0000
  C   C2        1.0  0.5618339313761936  0.5556720770801649  0.7383777958438985  1.0000
  C   C3        1.0  0.39426381025170537  0.4618083460830293  0.3332717212433954  1.0000
  C   C4        1.0  0.6057361895793092  0.538191653909373  0.6667282790701127  1.0000
  C   C5        1.0  0.236818485054049  0.35198074292539233  0.370819001394529  1.0000
  C   C6        1.0  0.763181514922848  0.648019257333276  0.6291809983144991  1.0000
  C   C7        1.0  0.2797211957768704  0.33543704139300873  0.29876906910581374  1.0000
  C   C8        1.0  0.7202788042000268  0.6645629588656599  0.7012309306032143  1.0000
  C   C9        1.0  0.29587698405170565  0.4160556291397811  0.3871798084486376  1.0000
  C   C10       1.0  0.7041230157793091  0.583944370852621  0.6128201918648705  1.0000
  C   C11       1.0  0.37870633663873643  0.3806271315044372  0.24518255456540103  1.0000
  C   C12       1.0  0.6212936633446524  0.6193728678015694  0.7548174457475723  1.0000
  C   C13       1.0  0.8312979739175245  0.3623541083443375  0.758078473777635  1.0000
  C   C14       1.0  0.16870202591349026  0.6376458916480647  0.24192152653587304  1.0000
  C   C15       1.0  0.7435875364247966  0.33771240146024234  0.8275582137904844  1.0000
  C   C16       1.0  0.25641246340621804  0.6622875985321598  0.17244178652302367  1.0000
  C   C17       1.0  0.9106742456985458  0.4298898337583873  0.748997231820049  1.0000
  C   C18       1.0  0.08932575427835113  0.5701101665002812  0.25100276788897913  1.0000
  C   C19       1.0  0.902750432261213  0.47109817958131756  0.807359951430346  1.0000
  C   C20       1.0  0.09724956786805827  0.5289018199909554  0.19264004827814724  1.0000
  C   C21       1.0  0.816024396449907  0.44554944106638134  0.877361703217048  1.0000
  C   C22       1.0  0.18397560441384603  0.5544505591898228  0.12263829649163668  1.0000
  C   C23       1.0  0.736457671018638  0.3781415349219878  0.8863006209516407  1.0000
  C   C24       1.0  0.26354232881237655  0.6218584650704142  0.11369937936186734  1.0000
  C   C25       1.0  0.691678444151595  0.9983297996387305  0.5655694507222161  1.0000
  C   C26       1.0  0.3083215559776763  0.0016701999335422294  0.43443054898627725  1.0000
  C   C27       1.0  0.39656548355771404  0.7145571795452856  0.5677733029802009  1.0000
  C   C28       1.0  0.6034345164191828  0.2854428207133829  0.43222669672882713  1.0000
  C   C29       1.0  0.4726014358094245  0.7863959532005443  0.5673118615483357  1.0000
  C   C30       1.0  0.5273985641674725  0.21360404705812402  0.4326881381606924  1.0000
  C   C31       1.0  0.8630153463724516  0.09669806614466919  0.5069213539964855  1.0000
  C   C32       1.0  0.13698465345856298  0.9033019338477329  0.4930786463170225  1.0000
  C   C33       1.0  0.6185940398166313  0.9251304117754824  0.5665338218633529  1.0000
  C   C34       1.0  0.3814059601602658  0.07486958848318596  0.4334661778456752  1.0000
  C   C35       1.0  0.7970374693512349  0.02577812899964018  0.5081083562275001  1.0000
  C   C36       1.0  0.20296253136663564  0.9742218709902977  0.4918916440856647  1.0000
  C   C37       1.0  0.21614160811368177  0.6254453141721884  0.6242223327603583  1.0000
  C   C38       1.0  0.7838583918632152  0.37455468608647996  0.3757776669486698  1.0000
  C   C39       1.0  0.2876683313118334  0.6939705364847363  0.6230779962725358  1.0000
  C   C40       1.0  0.7123316685191812  0.3060294635076659  0.37692200404097226  1.0000
  C   C41       1.0  0.5558270169246396  0.8326808772008676  0.4984563643200715  1.0000
  C   C42       1.0  0.4441729829063749  0.16731912279153466  0.5015436359934365  1.0000
  C   C43       1.0  0.46475354304121  0.8108062446913407  0.6359857565861956  1.0000
  C   C44       1.0  0.5352464567898046  0.18919375530106156  0.3640142437273124  1.0000
  C   C45       1.0  0.6270375023603199  0.9005448578303109  0.4979125751507725  1.0000
  C   C46       1.0  0.3729624976165771  0.09945514242835755  0.5020874245582556  1.0000
  C   C47       1.0  0.4309945556767432  0.6640327150330099  0.5135323024848787  1.0000
  C   C48       1.0  0.569005444452528  0.33596728453926283  0.4864676972236147  1.0000
  C   C49       1.0  0.7268605096683284  0.11735594260605443  0.6186675646074843  1.0000
  C   C50       1.0  0.27313949030856866  0.882644057652614  0.38133243510154374  1.0000
  C   C51       1.0  0.25095111064527065  0.5768332263032943  0.5693168610707531  1.0000
  C   C52       1.0  0.7490488891857442  0.42316677368910777  0.43068313924275503  1.0000
  C   C53       1.0  0.6588756095376754  0.04708056990478827  0.6211142610080043  1.0000
  C   C54       1.0  0.34112439043922166  0.9529194303538803  0.37888573870102366  1.0000
  C   C55       1.0  0.5362079963808416  0.8784155606944889  0.6356944799517166  1.0000
  C   C56       1.0  0.46379200374842955  0.12158443887778403  0.3643055197567768  1.0000
  C   C57       1.0  0.35883472889352486  0.5961852967097896  0.5141033770543678  1.0000
  C   C58       1.0  0.6411652710833722  0.40381470354887883  0.4858966226546602  1.0000
  C   C59       1.0  0.19324337144615766  0.015186460282976962  0.06513833520012058  1.0000
  C   C60       1.0  0.8067566283848568  0.9848135397094254  0.9348616651133874  1.0000
  C   C61       1.0  0.8999050180009187  0.7479269565122076  0.1425786435101982  1.0000
  C   C62       1.0  0.10009498183009585  0.25207304348019466  0.8574213568033099  1.0000
  C   C63       1.0  0.9865985868552989  0.7916387944312004  0.07507196132189359  1.0000
  C   C64       1.0  0.013401413121598182  0.20836120582746795  0.9249280383871346  1.0000
  C   C65       1.0  0.26111277247882514  0.09532816242808737  0.058384209473699794  1.0000
  C   C66       1.0  0.7388872274980718  0.904671837830581  0.9416157902353282  1.0000
  C   C67       1.0  0.057449620985280246  0.8673074509308174  0.07227703720010413  1.0000
  C   C68       1.0  0.942550379143991  0.13269254864145538  0.9277229625083891  1.0000
  C   C69       1.0  0.0026620790664572446  0.7585275533543517  0.010395920128931407  1.0000
  C   C70       1.0  0.9973379217972959  0.2414724469018524  0.9896040795797532  1.0000
  C   C71       1.0  0.34451108818047094  0.1374205361987042  0.9882348559206646  1.0000
  C   C72       1.0  0.655488911802918  0.8625794631073023  0.01176514439230866  1.0000
  C   C73       1.0  0.9368167342526357  0.6863702582840934  0.013862346367903901  1.0000
  C   C74       1.0  0.06318326572426138  0.31362974197457516  0.9861376533411241  1.0000
  C   C75       1.0  0.24131135944713236  0.9512545057633456  0.022914579190437094  1.0000
  C   C76       1.0  0.7586886406821388  0.04874549380892728  0.977085420518056  1.0000
  C   C77       1.0  0.24174723059299244  0.13388293492586484  0.12028126346038788  1.0000
  C   C78       1.0  0.7582527693839045  0.8661170653328039  0.8797187362486402  1.0000
  C   C79       1.0  0.8359319674401692  0.675390260546017  0.14455042973241045  1.0000
  C   C80       1.0  0.1640680323908456  0.3246097394463852  0.8554495705810976  1.0000
  C   C81       1.0  0.010094830408692645  0.9299873787447218  0.11559756809458796  1.0000
  C   C82       1.0  0.989905169422322  0.07001262124768039  0.8844024322189201  1.0000
  C   C83       1.0  0.38310947135342865  0.2550222862066709  0.04095000271776332  1.0000
  C   C84       1.0  0.6168905286234683  0.7449777140519975  0.9590499969912648  1.0000
  C   C85       1.0  0.40535484562223584  0.21606915571814359  0.9797557743650843  1.0000
  C   C86       1.0  0.594645154354661  0.7839308445405248  0.02024422534394377  1.0000
  C   C87       1.0  0.301578137935306  0.21322255182421726  0.11147722733268123  1.0000
  C   C88       1.0  0.6984218618957085  0.7867774481681851  0.8885227729808268  1.0000
  C   C89       1.0  0.07668014287339839  0.0025081863866647882  0.11199764693865985  1.0000
  C   C90       1.0  0.9233198571034986  0.9974918138720037  0.8880023527703682  1.0000
  C   C91       1.0  0.1745424855393816  0.8790868715745543  0.02602778407739293  1.0000
  C   C92       1.0  0.8254575144375154  0.12091312868411429  0.973972215631635  1.0000
  C   C93       1.0  0.36140442402842465  0.8235608266463457  0.8511138483436955  1.0000
  C   C94       1.0  0.6385955759549642  0.1764391726596608  0.14888615196927785  1.0000
  C   C95       1.0  0.16645947942611491  0.02128901393229883  0.7145335566760589  1.0000
  C   C96       1.0  0.8335405205572739  0.9787109853737078  0.2854664436369144  1.0000
  C   C97       1.0  0.22285867207824747  0.10956810217974261  0.7026787120426345  1.0000
  C   C98       1.0  0.7771413277527672  0.8904318978126597  0.2973212882708735  1.0000
  C   C99       1.0  0.3809777950401165  0.18681223672195793  0.7279226951560447  1.0000
  C   C100      1.0  0.6190222047908981  0.8131877632704443  0.2720773051574635  1.0000
  C   C101      1.0  0.06604983278310063  0.026253820467345573  0.6788800828037385  1.0000
  C   C102      1.0  0.9339501671937963  0.9737461797913228  0.3211199169052895  1.0000
  C   C103      1.0  0.47433158327878605  0.001430452180638523  0.8269592110861302  1.0000
  C   C104      1.0  0.5256684165522287  0.9985695478117637  0.17304078922737787  1.0000
  C   C105      1.0  0.21562034465014873  0.9271176922016072  0.7645365528104113  1.0000
  C   C106      1.0  0.7843796553267482  0.07288230805706135  0.2354634468986167  1.0000
  C   C107      1.0  0.3741995849282269  0.005901629702603018  0.7912492769418454  1.0000
  C   C108      1.0  0.6258004149027877  0.9940983702897992  0.20875072337166264  1.0000
  C   C109      1.0  0.3257455994348072  0.1000560689944312  0.7406586793394742  1.0000
  C   C110      1.0  0.6742544015813202  0.8999439305753772  0.2593413203686757  1.0000
  C   C111      1.0  0.3177169419654898  0.9175465498980169  0.8033068992833187  1.0000
  C   C112      1.0  0.6822830578655247  0.08245345009438543  0.1966931010301895  1.0000
  C   C113      1.0  0.01361967314864356  0.9410231993765571  0.6904615671164818  1.0000
  C   C114      1.0  0.9863803266823711  0.05897680061584501  0.30953843319702623  1.0000
  C   C115      1.0  0.17879742717470234  0.20342794197839137  0.6552171224706758  1.0000
  C   C116      1.0  0.8212025726563125  0.7965720580140109  0.3447828778428323  1.0000
  C   C117      1.0  0.16137397355950622  0.8403543195517811  0.776099257672992  1.0000
  C   C118      1.0  0.8386260264173907  0.15964568070688737  0.223900742036036  1.0000
  C   C119      1.0  0.20998863116420335  0.7468035512559065  0.8252751954820341  1.0000
  C   C120      1.0  0.7900113688126936  0.253196449002762  0.17472480422699402  1.0000
  C   C121      1.0  0.5283637119203987  0.08641041343624728  0.8139593693254006  1.0000
  C   C122      1.0  0.47163628894335435  0.913589586819957  0.18604063038328406  1.0000
  C   C123      1.0  0.33230880126703  0.2804508960774786  0.6785465179500171  1.0000
  C   C124      1.0  0.6676911987163588  0.7195491032285279  0.32145348236295623  1.0000
  C   C125      1.0  0.482917964889834  0.177810146081744  0.7653116149765189  1.0000
  C   C126      1.0  0.517082035087063  0.8221898541769247  0.2346883847325091  1.0000
  C   C127      1.0  0.3082543521726885  0.7391319491971693  0.862100767776872  1.0000
  C   C128      1.0  0.6917456476583261  0.26086805079523295  0.13789923253663608  1.0000
  C   C129      1.0  0.06021030666355716  0.8493849560645536  0.7379313765577988  1.0000
  C   C130      1.0  0.9397896933198318  0.15061504324145303  0.2620686237551745  1.0000
  C   C131      1.0  0.23229637944746867  0.28803983606782296  0.6433323852317894  1.0000
  C   C132      1.0  0.7677036205294282  0.7119601641908455  0.3566676144772387  1.0000
  N   N1        1.0  0.8285629604270459  0.14179605564522274  0.5621654568123032  1.0000
  N   N2        1.0  0.17143703940396865  0.8582039443471795  0.4378345435012049  1.0000
  N   N3        1.0  0.8550433172591482  0.6443806728192732  0.08085172124221053  1.0000
  N   N4        1.0  0.14495668272424064  0.3556193264867333  0.9191482790707628  1.0000
  O   O1        1.0  0.8937206326653288  0.2082297795603165  0.5615316384057829  1.0000
  O   O2        1.0  0.10627936731156816  0.7917702206983519  0.4384683613032452  1.0000
  O   O3        1.0  0.7959337139230754  0.5727799347084809  0.08466186060095841  1.0000
  O   O4        1.0  0.20406628620619588  0.42722006486379205  0.9153381391075348  1.0000
  F   F1        1.0  0.41704650472743243  0.3607584885193994  0.17636915528447608  1.0000
  F   F2        1.0  0.5829534951035821  0.6392415114730029  0.8236308450290319  1.0000
  F   F3        1.0  0.2575255049811418  0.4355556417199631  0.45611091795174885  1.0000
  F   F4        1.0  0.7424744960349856  0.5644443578498453  0.543889081756401  1.0000
  F   F5        1.0  0.44748940455765407  0.524952622443028  0.35091439373101885  1.0000
  F   F6        1.0  0.552510595419243  0.47504737781564027  0.6490856059780094  1.0000
  F   F7        1.0  0.22472084267379955  0.2741433285318103  0.2798152747095243  1.0000
  F   F8        1.0  0.7752791573030975  0.7258566717268581  0.7201847249995038  1.0000
  F   F9        1.0  0.6499433015548093  0.3503618784833478  0.9530040238157161  1.0000
  F   F10       1.0  0.350056698574462  0.649638121088925  0.04699597589277713  1.0000
  F   F11       1.0  0.6633431555236946  0.27330494155762725  0.8386321005508586  1.0000
  F   F12       1.0  0.3366568443073199  0.726695058434775  0.16136789976264954  1.0000
  F   F13       1.0  0.9984092911759769  0.456183439193563  0.6829077316725233  1.0000
  F   F14       1.0  0.0015907089532944273  0.5438165603787097  0.31709226803597  1.0000
  F   F15       1.0  0.9823135848604488  0.5366895828653225  0.7951876061521502  1.0000
  F   F16       1.0  0.017686415116448022  0.4633104173933457  0.20481239355687791  1.0000
  I   I1        1.0  0.5923065652139666  0.5089285105202345  0.18383079919170212  1.0000
  I   I2        1.0  0.407693434617048  0.4910714894721677  0.8161692011218059  1.0000
  I   I3        1.0  0.08542300469475898  0.28576888875321377  0.4499589817326623  1.0000
  I   I4        1.0  0.914576995282138  0.7142311115054547  0.5500410179763658  1.0000
  I   I5        1.0  0.8077193975678583  0.506683291047336  0.9657372878795947  1.0000
  I   I6        1.0  0.1922806024090388  0.4933167092113324  0.034262711829433294  1.0000
  I   I7        1.0  0.8458322226555787  0.29763536555414105  0.671419984172567  1.0000
  I   I8        1.0  0.15416777717543592  0.7023646344382611  0.3285800161409411  1.0000
