data_image0
_chemical_formula_structural       H34C26N4O6S2
_chemical_formula_sum              "H34 C26 N4 O6 S2"
_cell_length_a       7.214376935597835
_cell_length_b       10.543542250650422
_cell_length_c       10.480105980891876
_cell_angle_alpha    108.39746989111659
_cell_angle_beta     103.25776182413783
_cell_angle_gamma    107.64675853697926

_space_group_name_H-M_alt    "P 1"
_space_group_IT_number       1

loop_
  _space_group_symop_operation_xyz
  'x, y, z'

loop_
  _atom_site_type_symbol
  _atom_site_label
  _atom_site_symmetry_multiplicity
  _atom_site_fract_x
  _atom_site_fract_y
  _atom_site_fract_z
  _atom_site_occupancy
  H   H1        1.0  0.8264437844617712  0.5587377057651137  0.43461781688387724  1.0000
  H   H2        1.0  0.173556215971229  0.441262294342837  0.5653821831650787  1.0000
  H   H3        1.0  0.9607265445680311  0.8248510957671435  0.5785061444067847  1.0000
  H   H4        1.0  0.0392734558649692  0.1751489043408071  0.42149385564217123  1.0000
  H   H5        1.0  0.3430559593307579  0.8138026025497086  0.43644517320473253  1.0000
  H   H6        1.0  0.6569440411022424  0.18619739755824205  0.5635548268442236  1.0000
  H   H7        1.0  0.9437452279039551  0.17872933870540425  0.7368853191756941  1.0000
  H   H8        1.0  0.05625477189116741  0.8212706603070433  0.2631146813776347  1.0000
  H   H9        1.0  0.03930770570956084  0.0651945764486318  0.6288575975411258  1.0000
  H   H10       1.0  0.9606922947234393  0.9348054236593187  0.37114240250783004  1.0000
  H   H11       1.0  0.9655580527692017  0.02609107879125379  0.7695154653221795  1.0000
  H   H12       1.0  0.03444194624024419  0.9739089213175927  0.23048453450091472  1.0000
  H   H13       1.0  0.1483583337143594  0.12764102027402469  0.10178192732222091  1.0000
  H   H14       1.0  0.8516416667186408  0.872358979833926  0.898218072726735  1.0000
  H   H15       1.0  0.9263640673091925  0.16584644092760928  0.05971271796922893  1.0000
  H   H16       1.0  0.07363593312380769  0.8341535591803413  0.940287282079727  1.0000
  H   H17       1.0  0.6253864835127102  0.9818500543133566  0.30778318460407167  1.0000
  H   H18       1.0  0.37461351692028994  0.01814994579459395  0.6922168154448842  1.0000
  H   H19       1.0  0.722653641761006  0.0005149432940032881  0.17224895172375226  1.0000
  H   H20       1.0  0.2773463586719943  0.9994850568139474  0.8277510483252039  1.0000
  H   H21       1.0  0.3766100548568468  0.7897846440520221  0.9848534818291548  1.0000
  H   H22       1.0  0.6233899455761536  0.21021535605592867  0.015146518219801296  1.0000
  H   H23       1.0  0.3104056708381292  0.7635839306158524  0.12938794534544987  1.0000
  H   H24       1.0  0.689594329594871  0.2364160694920982  0.870612054703506  1.0000
  H   H25       1.0  0.6361395722462645  0.7215543748808052  0.2085730829195261  1.0000
  H   H26       1.0  0.3638604281867358  0.27844562522714544  0.7914269171294299  1.0000
  H   H27       1.0  0.6965030903166483  0.7472860966865618  0.061870528329141576  1.0000
  H   H28       1.0  0.30349691011635194  0.25271390342138894  0.9381294717198143  1.0000
  H   H29       1.0  0.36152322867626224  0.5321764388140948  0.8907341147525364  1.0000
  H   H30       1.0  0.6384767696982562  0.46782356020070487  0.10926588462167172  1.0000
  H   H31       1.0  0.30818063934786283  0.5048185019556358  0.038092852715238  1.0000
  H   H32       1.0  0.6918193610851374  0.4951814981523147  0.961907147333718  1.0000
  H   H33       1.0  0.5147798779919123  0.2746243502125988  0.2582384843370767  1.0000
  H   H34       1.0  0.485220122441088  0.7253756498953519  0.7417615157118793  1.0000
  C   C1        1.0  0.206515974319458  0.33944781084159803  0.20729682687474854  1.0000
  C   C2        1.0  0.7934840261135423  0.6605521892663527  0.7927031731742074  1.0000
  C   C3        1.0  0.5078153006228526  0.5324594610225913  0.35342271007441306  1.0000
  C   C4        1.0  0.49218469917521995  0.46754053799131257  0.6465772895256571  1.0000
  C   C5        1.0  0.7203234239386875  0.6134986766615227  0.4335496496112618  1.0000
  C   C6        1.0  0.2796765764943127  0.386501323446428  0.5664503504376942  1.0000
  C   C7        1.0  0.7955103859972065  0.7642461162088997  0.514135353833073  1.0000
  C   C8        1.0  0.20448961380086622  0.2357538828050043  0.48586464576699717  1.0000
  C   C9        1.0  0.6585780885421149  0.834683966592706  0.513664562978054  1.0000
  C   C10       1.0  0.3414219118879352  0.16531603351378837  0.48633543802416085  1.0000
  C   C11       1.0  0.4446202942065079  0.7556656092765839  0.43350761394235265  1.0000
  C   C12       1.0  0.5553797062264924  0.2443343908313667  0.5664923861066035  1.0000
  C   C13       1.0  0.3722652606674253  0.6059044354553831  0.35548007940465665  1.0000
  C   C14       1.0  0.6277347397655749  0.3940955646525676  0.6445199206442993  1.0000
  C   C15       1.0  0.9293272608646801  0.06625739737710179  0.6860909980394809  1.0000
  C   C16       1.0  0.07067273893339256  0.9337426016368021  0.313909001560589  1.0000
  C   C17       1.0  0.47606318242254336  0.06568436479084822  0.17817753774543235  1.0000
  C   C18       1.0  0.5239368180104568  0.9343156353171025  0.8218224623035236  1.0000
  C   C19       1.0  0.577769501166201  0.9635158539447973  0.19364020716467276  1.0000
  C   C20       1.0  0.4222304992667992  0.036484146163153375  0.8063597928842832  1.0000
  C   C21       1.0  0.44313869496535135  0.8024988093368259  0.09600037584405818  1.0000
  C   C22       1.0  0.5568613054676488  0.19750119077112463  0.9039996242048979  1.0000
  C   C23       1.0  0.566290187825116  0.7079633145208805  0.09744163939517662  1.0000
  C   C24       1.0  0.43370981260788427  0.29203668558707024  0.9025583606537794  1.0000
  C   C25       1.0  0.4360966896254191  0.5459672520100383  0.0012833920206277332  1.0000
  C   C26       1.0  0.563903310807581  0.4540327480979123  0.9987166080283282  1.0000
  N   N1        1.0  0.07753261882620514  0.19970945980680288  0.12262640166897137  1.0000
  N   N2        1.0  0.9224673816067951  0.8002905403011478  0.8773735983799846  1.0000
  N   N3        1.0  0.40985432390075077  0.38320830168504266  0.26855215080545436  1.0000
  N   N4        1.0  0.5901456765322495  0.616791698422908  0.7314478492435016  1.0000
  O   O1        1.0  0.7183261906686645  0.9822677802431549  0.5895521088544723  1.0000
  O   O2        1.0  0.28167380976433576  0.017732219864795843  0.41044789119448366  1.0000
  O   O3        1.0  0.2955417864280075  0.020925440652710847  0.09155293885074449  1.0000
  O   O4        1.0  0.7044582140049926  0.9790745594552398  0.9084470611982115  1.0000
  O   O5        1.0  0.5948383616574507  0.20458069659846428  0.261736076660345  1.0000
  O   O6        1.0  0.40516163877554956  0.7954193035094864  0.7382639233886109  1.0000
  S   S1        1.0  0.11608896086397467  0.4800223785938288  0.24938095996180573  1.0000
  S   S2        1.0  0.8839110395690255  0.5199776215141217  0.7506190400871502  1.0000
