data_image0
_chemical_formula_structural       H20C20N8I2
_chemical_formula_sum              "H20 C20 N8 I2"
_cell_length_a       5.712504568147604
_cell_length_b       6.047078094107027
_cell_length_c       16.315711441730226
_cell_angle_alpha    97.67715625811906
_cell_angle_beta     91.73492806793378
_cell_angle_gamma    103.19394865867343

_space_group_name_H-M_alt    "P 1"
_space_group_IT_number       1

loop_
  _space_group_symop_operation_xyz
  'x, y, z'

loop_
  _atom_site_type_symbol
  _atom_site_label
  _atom_site_symmetry_multiplicity
  _atom_site_fract_x
  _atom_site_fract_y
  _atom_site_fract_z
  _atom_site_occupancy
  H   H1        1.0  0.8553148003017371  0.49769770485944  0.5830005122208779  1.0000
  H   H2        1.0  0.14468519969656687  0.5023022954411532  0.41699948771585066  1.0000
  H   H3        1.0  0.6123156374989621  0.2761109898895843  0.6026764725731174  1.0000
  H   H4        1.0  0.38768436249934185  0.7238890104110088  0.39732352736361104  1.0000
  H   H5        1.0  0.6284043036102959  0.36524033333202305  0.5030257891155002  1.0000
  H   H6        1.0  0.3715956963880082  0.6347596669685702  0.49697421082122817  1.0000
  H   H7        1.0  0.053868837493084125  0.7023478439084014  0.3100178697083829  1.0000
  H   H8        1.0  0.946131162115338  0.2976521546945238  0.6899821302301942  1.0000
  H   H9        1.0  0.015021983330168326  0.9750214202212372  0.2912730869673753  1.0000
  H   H10       1.0  0.9849780162782539  0.02497857838168826  0.7087269129712018  1.0000
  H   H11       1.0  0.7619552982897839  0.7573076220494404  0.3065140564349536  1.0000
  H   H12       1.0  0.2380447017085201  0.24269237825115297  0.6934859435017748  1.0000
  H   H13       1.0  0.5380721491480932  0.6979477384716974  0.9808986430402212  1.0000
  H   H14       1.0  0.4619278504603291  0.30205226013122793  0.019101356898355907  1.0000
  H   H15       1.0  0.7799558393646869  0.9405692005733057  0.9807353031473576  1.0000
  H   H16       1.0  0.22004416075195352  0.059430799980218774  0.01926469740904644  1.0000
  H   H17       1.0  0.37911013895086354  0.8365651064332811  0.14548086798927226  1.0000
  H   H18       1.0  0.6208898610474405  0.1634348938673122  0.8545191319474561  1.0000
  H   H19       1.0  0.7966150285479814  0.23404120115676985  0.1357494787000298  1.0000
  H   H20       1.0  0.20338497145032272  0.7659587991438234  0.8642505212366987  1.0000
  C   C1        1.0  0.8743344299255604  0.15931853816580732  0.5268495923845449  1.0000
  C   C2        1.0  0.12566557007274373  0.8406814621347861  0.4731504075521837  1.0000
  C   C3        1.0  0.9785582944335626  0.917878730121154  0.41755394177880994  1.0000
  C   C4        1.0  0.021441705174859643  0.08212126848177145  0.5824460581597671  1.0000
  C   C5        1.0  0.7349522168921051  0.33413813123130837  0.5552681045179068  1.0000
  C   C6        1.0  0.265047783106199  0.6658618690692849  0.44473189541882163  1.0000
  C   C7        1.0  0.9521153402063174  0.8324705733504215  0.3266277609536898  1.0000
  C   C8        1.0  0.04788465979198661  0.1675294269501717  0.6733722389830387  1.0000
  C   C9        1.0  0.8345559360678725  0.7090690247646498  0.0551915413124645  1.0000
  C   C10       1.0  0.1654440639304316  0.29093097553594355  0.944808458624264  1.0000
  C   C11       1.0  0.19571952130071865  0.7375734753516744  0.12697421968151687  1.0000
  C   C12       1.0  0.8042804788159217  0.26242652520184995  0.8730257808748872  1.0000
  C   C13       1.0  0.11099734377988756  0.5210286998281807  0.1524377618671619  1.0000
  C   C14       1.0  0.8890026562184165  0.47897130047241254  0.8475622380695665  1.0000
  C   C15       1.0  0.8750393133460889  0.4062516206912896  0.12178401887884743  1.0000
  C   C16       1.0  0.12496068626233321  0.5937483779116358  0.8782159810597296  1.0000
  C   C17       1.0  0.251779279131827  0.42620045945309865  0.20436142129740945  1.0000
  C   C18       1.0  0.7482207208664771  0.5737995408474945  0.7956385786393189  1.0000
  C   C19       1.0  0.37389654278618406  0.3456248340856092  0.24996757578270257  1.0000
  C   C20       1.0  0.6261034572121199  0.654375166214984  0.7500324241540258  1.0000
  N   N1        1.0  0.8564603974428043  0.0752141293429083  0.4457330033073937  1.0000
  N   N2        1.0  0.14353960267383606  0.9247858712106163  0.5542669972490103  1.0000
  N   N3        1.0  0.7390973667813814  0.4958474319343437  0.07446989646194067  1.0000
  N   N4        1.0  0.26090263321692264  0.5041525683662496  0.9255301034747877  1.0000
  N   N5        1.0  0.6952384243470975  0.8048573246799807  0.010077418395185358  1.0000
  N   N6        1.0  0.30476157526132464  0.19514267392294463  0.9899225815433919  1.0000
  N   N7        1.0  0.06326037522667924  0.830597906781647  0.0795884328974877  1.0000
  N   N8        1.0  0.9367396243817429  0.1694020918212783  0.9204115670410894  1.0000
  I   I1        1.0  0.5771206953248597  0.22396477738762188  0.32812178110244294  1.0000
  I   I2        1.0  0.4228793046734444  0.7760352229129716  0.6718782188342856  1.0000
