data_image0
_chemical_formula_structural       H36C48N16I4
_chemical_formula_sum              "H36 C48 N16 I4"
_cell_length_a       19.549500491469548
_cell_length_b       7.411690156724704
_cell_length_c       8.225696720939187
_cell_angle_alpha    90.0
_cell_angle_beta     100.72262417756006
_cell_angle_gamma    90.0

_space_group_name_H-M_alt    "P 1"
_space_group_IT_number       1

loop_
  _space_group_symop_operation_xyz
  'x, y, z'

loop_
  _atom_site_type_symbol
  _atom_site_label
  _atom_site_symmetry_multiplicity
  _atom_site_fract_x
  _atom_site_fract_y
  _atom_site_fract_z
  _atom_site_occupancy
  H   H1        1.0  0.7294453620331728  0.6046477126319053  0.9340873629697561  1.0000
  H   H2        1.0  0.27055463768402344  0.10464771241095057  0.5659126364754052  1.0000
  H   H3        1.0  0.27055463778881855  0.39535228646078424  0.06591263619091407  1.0000
  H   H4        1.0  0.7294453622358514  0.8953522866817389  0.434087363922569  1.0000
  H   H5        1.0  0.6640537435202267  0.6412434046083034  0.646436045514002  1.0000
  H   H6        1.0  0.33594625619696944  0.1412434043873488  0.8535639539311594  1.0000
  H   H7        1.0  0.3359462563017645  0.3587565958336059  0.35356395364666815  1.0000
  H   H8        1.0  0.6640537436250218  0.8587565960545607  0.1464360452295108  1.0000
  H   H9        1.0  0.4915388752715678  0.3635052266122505  0.8004390251467258  1.0000
  H   H10       1.0  0.5084611250548396  0.8635052268332053  0.6995609755332687  1.0000
  H   H11       1.0  0.5084611251596346  0.6364947724804391  0.19956097524877744  1.0000
  H   H12       1.0  0.4915388748650353  0.1364947736087042  0.30043902486470564  1.0000
  H   H13       1.0  0.5641842092615331  0.3427139621716849  0.08024429342869206  1.0000
  H   H14       1.0  0.4358157906652533  0.8427139623926396  0.4197557054474869  1.0000
  H   H15       1.0  0.4358157905604582  0.6572860382702245  0.9197557057319781  1.0000
  H   H16       1.0  0.5641842096680656  0.15728603804926977  0.5802442937107123  1.0000
  H   H17       1.0  0.562142112351263  0.5941193326875279  0.44325637168759885  1.0000
  H   H18       1.0  0.43785788767340694  0.09411933246657313  0.05674362842588424  1.0000
  H   H19       1.0  0.43785788747072824  0.4058806664051617  0.5567436274730713  1.0000
  H   H20       1.0  0.5621421122464679  0.9058806666261163  0.94325637197209  1.0000
  H   H21       1.0  0.017525153769061847  0.625626364830274  0.34619501078107606  1.0000
  H   H22       1.0  0.9824748462556081  0.12562636460931922  0.153804989332407  1.0000
  H   H23       1.0  0.9824748466621407  0.3743736356116355  0.6538049896144271  1.0000
  H   H24       1.0  0.01752515356638315  0.8743736358325903  0.8461950098282631  1.0000
  H   H25       1.0  0.020174684437447684  0.3868987962749927  0.3436647650648199  1.0000
  H   H26       1.0  0.9798253155872223  0.8868987964959474  0.1563352350486632  1.0000
  H   H27       1.0  0.9798253153845435  0.6131012041669167  0.6563352340958502  1.0000
  H   H28       1.0  0.020174684332652636  0.11310120394596201  0.8436647653493111  1.0000
  H   H29       1.0  0.86691741568679  0.7901851151570656  0.8875674761416449  1.0000
  H   H30       1.0  0.13308258454173377  0.29018511493611093  0.6124325233010454  1.0000
  H   H31       1.0  0.13308258413520127  0.20981488528484385  0.11243252301902519  1.0000
  H   H32       1.0  0.8669174158894687  0.7098148855057985  0.3875674770944579  1.0000
  H   H33       1.0  0.876894467138513  0.2082143110906789  0.8821841518701505  1.0000
  H   H34       1.0  0.12310553267656672  0.7082143113116336  0.6178158488123149  1.0000
  H   H35       1.0  0.12310553278136176  0.7917856893512306  0.11781584852782372  1.0000
  H   H36       1.0  0.8768944672433081  0.29178568913027586  0.3821841515856594  1.0000
  C   C1        1.0  0.6762878944355227  0.5543362746042821  0.8993673290262044  1.0000
  C   C2        1.0  0.32371210589088467  0.054336274383327346  0.60063267165379  1.0000
  C   C3        1.0  0.32371210548435214  0.44566372448840746  0.10063267137176972  1.0000
  C   C4        1.0  0.6762878940289903  0.9456637247093622  0.39936732874418435  1.0000
  C   C5        1.0  0.6393781971018009  0.5746220929292135  0.738506043313262  1.0000
  C   C6        1.0  0.36062180271327887  0.0746220927082588  0.7614939573692036  1.0000
  C   C7        1.0  0.3606218028180739  0.42537790751269594  0.26149395708471235  1.0000
  C   C8        1.0  0.6393781972065959  0.9253779063844307  0.2385060430287708  1.0000
  C   C9        1.0  0.5711832223042553  0.5071995281115783  0.6964573744334331  1.0000
  C   C10       1.0  0.4288167775108246  0.007199527890623612  0.8035426262490323  1.0000
  C   C11       1.0  0.42881677761561965  0.49280047233033114  0.3035426259645411  1.0000
  C   C12       1.0  0.5711832224090503  0.9928004725512859  0.19645737414894196  1.0000
  C   C13       1.0  0.5437610876795362  0.42071342623123914  0.8229503176501063  1.0000
  C   C14       1.0  0.4562389120376599  0.9207134264521939  0.677049681795055  1.0000
  C   C15       1.0  0.456238912142455  0.5792865742106704  0.17704968151056386  1.0000
  C   C16       1.0  0.5437610878822149  0.07928657398971559  0.3229503186029193  1.0000
  C   C17       1.0  0.5842627840431829  0.40800007772266633  0.9799808047141904  1.0000
  C   C18       1.0  0.4157372162832245  0.908000077943621  0.5200191959658039  1.0000
  C   C19       1.0  0.415737215876692  0.5919999227192432  0.020019195683783835  1.0000
  C   C20       1.0  0.5842627841479779  0.09199992249828844  0.47998080442969926  1.0000
  C   C21       1.0  0.5330060919569989  0.5280121507034767  0.5279236568065279  1.0000
  C   C22       1.0  0.4669939083694086  0.02801215048252207  0.9720763438734666  1.0000
  C   C23       1.0  0.4669939084742036  0.47198784973843266  0.47207634358897543  1.0000
  C   C24       1.0  0.5330060915504663  0.9719878499593874  0.027923656524507668  1.0000
  C   C25       1.0  0.9513257404711164  0.5034186509557013  0.15584507383522556  1.0000
  C   C26       1.0  0.04867425955355346  0.003418650734746458  0.3441549262782575  1.0000
  C   C27       1.0  0.04867425996008596  0.49658134948620825  0.8441549265602777  1.0000
  C   C28       1.0  0.9513257402684379  0.9965813497071631  0.6558450728824126  1.0000
  C   C29       1.0  0.8844493851184948  0.6599955120306433  0.9420512792661666  1.0000
  C   C30       1.0  0.11555061511002902  0.15999551180968857  0.5579487201765235  1.0000
  C   C31       1.0  0.11555061470349652  0.3400044884112661  0.05794871989450347  1.0000
  C   C32       1.0  0.8844493852232899  0.8400044886322209  0.4420512789816755  1.0000
  C   C33       1.0  0.8619934340982914  0.4984653839917968  0.85806752831312  1.0000
  C   C34       1.0  0.13800656622811588  0.9984653842127514  0.6419324723668743  1.0000
  C   C35       1.0  0.13800656633291095  0.5015346164501127  0.14193247208238316  1.0000
  C   C36       1.0  0.8619934336917592  0.0015346162291579553  0.3580675280310999  1.0000
  C   C37       1.0  0.8898029219237299  0.3397402612298016  0.9393829559624951  1.0000
  C   C38       1.0  0.11019707840267741  0.8397402614507563  0.5606170447174993  1.0000
  C   C39       1.0  0.11019707850747247  0.6602597392121079  0.060617044433008194  1.0000
  C   C40       1.0  0.8898029215171974  0.16025973899115314  0.4393829556804749  1.0000
  C   C41       1.0  0.8182690829344562  0.49307548112817606  0.7007125960310803  1.0000
  C   C42       1.0  0.18173091739195105  0.9930754813491308  0.7992874046489142  1.0000
  C   C43       1.0  0.1817309174967461  0.5069245193137334  0.299287404364423  1.0000
  C   C44       1.0  0.8182690825279237  0.006924519092778678  0.20071259574906006  1.0000
  C   C45       1.0  0.7815394216416528  0.48059722609533617  0.5633287990838912  1.0000
  C   C46       1.0  0.21846057858687096  0.9805972263162909  0.9366712003587991  1.0000
  C   C47       1.0  0.21846057869166605  0.5194027743465733  0.436671200074308  1.0000
  C   C48       1.0  0.781539421333004  0.01940277412561858  0.06332880003917514  1.0000
  N   N1        1.0  0.649403353510734  0.47344287548451236  0.01898894756709055  1.0000
  N   N2        1.0  0.3505966465139359  0.9734428757054672  0.48101105254639254  1.0000
  N   N3        1.0  0.35059664640914084  0.5265571249573971  0.9810110528308837  1.0000
  N   N4        1.0  0.6494033533080553  0.02655712473644236  0.5189889466142776  1.0000
  N   N5        1.0  0.9331241491482545  0.3402729561909391  0.08399497914429617  1.0000
  N   N6        1.0  0.06687585087641534  0.8402729564118939  0.4160050209691869  1.0000
  N   N7        1.0  0.0668758507716203  0.6597270429017504  0.916005021253678  1.0000
  N   N8        1.0  0.9331241489455758  0.15972704403001559  0.5839949781914833  1.0000
  N   N9        1.0  0.9942094366165865  0.5047870203539818  0.30334784837990797  1.0000
  N   N10       1.0  0.005790563408083489  0.004787020133027109  0.19665215173357511  1.0000
  N   N11       1.0  0.00579056381461599  0.49521298008792763  0.6966521520155953  1.0000
  N   N12       1.0  0.9942094365117914  0.9952129803088823  0.803347848664399  1.0000
  N   N13       1.0  0.9278643934981354  0.6645499509354285  0.08698171178720923  1.0000
  N   N14       1.0  0.0721356065265346  0.1645499507144737  0.41301828832627385  1.0000
  N   N15       1.0  0.07213560632385589  0.33545004950648105  0.9130182873734608  1.0000
  N   N16       1.0  0.9278643933933404  0.8354500483782158  0.5869817120717004  1.0000
  I   I1        1.0  0.7244996693521607  0.46449039789884355  0.33189624179165544  1.0000
  I   I2        1.0  0.2755003306725093  0.9644903981197983  0.16810375832182764  1.0000
  I   I3        1.0  0.2755003309811581  0.5355096025430659  0.6681037573665438  1.0000
  I   I4        1.0  0.7244996692473655  0.035509602322111165  0.8318962420761467  1.0000
