data_image0
_chemical_formula_structural       H80C68N8O12
_chemical_formula_sum              "H80 C68 N8 O12"
_cell_length_a       9.506447662627421
_cell_length_b       12.831390399791879
_cell_length_c       13.333190464480131
_cell_angle_alpha    102.30031008895483
_cell_angle_beta     103.63430825016239
_cell_angle_gamma    91.63028412155454

_space_group_name_H-M_alt    "P 1"
_space_group_IT_number       1

loop_
  _space_group_symop_operation_xyz
  'x, y, z'

loop_
  _atom_site_type_symbol
  _atom_site_label
  _atom_site_symmetry_multiplicity
  _atom_site_fract_x
  _atom_site_fract_y
  _atom_site_fract_z
  _atom_site_occupancy
  H   H1        1.0  0.0732156782690979  0.11954405298304606  0.22020304629833581  1.0000
  H   H2        1.0  0.9267843217722623  0.880455947229315  0.7797969539457454  1.0000
  H   H3        1.0  0.044946896545987776  0.6116744933377025  0.5952180292876414  1.0000
  H   H4        1.0  0.9550531034953726  0.3883255068746585  0.4047819709564398  1.0000
  H   H5        1.0  0.018958896894192685  0.5487587340994725  0.40035379196902  1.0000
  H   H6        1.0  0.9810411031471675  0.45124126611288856  0.5996462082750613  1.0000
  H   H7        1.0  0.06524044588966306  0.6768185462093782  0.2953770297459035  1.0000
  H   H8        1.0  0.9347595540586311  0.3231814532025868  0.7046229703201231  1.0000
  H   H9        1.0  0.13964670962183387  0.9707869139229661  0.40565018900322924  1.0000
  H   H10       1.0  0.8603532904195265  0.029213086289394976  0.5943498112408521  1.0000
  H   H11       1.0  0.0829489846987478  0.8009378979705012  0.1991418173557031  1.0000
  H   H12       1.0  0.9170510152495464  0.19906210144146394  0.8008581827103236  1.0000
  H   H13       1.0  0.9413530261212438  0.8452570302838607  0.25695738961791964  1.0000
  H   H14       1.0  0.05864697392011652  0.1547429699285003  0.7430426106261616  1.0000
  H   H15       1.0  0.3894099535735492  0.9044680167140903  0.43895480671999776  1.0000
  H   H16       1.0  0.6105900464678111  0.09553198349827069  0.5610451935240834  1.0000
  H   H17       1.0  0.3431137854875462  0.9516663910810683  0.32026674441574116  1.0000
  H   H18       1.0  0.6568862145548688  0.048333609129494505  0.6797332550781431  1.0000
  H   H19       1.0  0.3372105126748474  0.811413039853188  0.3152439533362179  1.0000
  H   H20       1.0  0.6627894873665129  0.18858696035917294  0.6847560469078633  1.0000
  H   H21       1.0  0.11977367384221106  0.8021476182413398  0.6813764658293446  1.0000
  H   H22       1.0  0.8802263261060831  0.1978523811706253  0.318623534236682  1.0000
  H   H23       1.0  0.2967919925277114  0.9862833860590183  0.5904504251654384  1.0000
  H   H24       1.0  0.7032080074205828  0.01371661335294684  0.4095495749005882  1.0000
  H   H25       1.0  0.18655127886041115  0.9761723699764354  0.6787352680809388  1.0000
  H   H26       1.0  0.8134487211809491  0.02382763023592561  0.32126473216314244  1.0000
  H   H27       1.0  0.11551372577235745  0.01928838891670398  0.560920911068441  1.0000
  H   H28       1.0  0.8844862741759366  0.9807116104952612  0.43907908899758563  1.0000
  H   H29       1.0  0.6791492116783727  0.07562541632176875  0.8781709569552211  1.0000
  H   H30       1.0  0.3208507882709759  0.9243745830883983  0.12182904236060842  1.0000
  H   H31       1.0  0.8122251942804336  0.9252877988793601  0.9386174050815569  1.0000
  H   H32       1.0  0.18777480576092662  0.07471220133300091  0.06138259516252441  1.0000
  H   H33       1.0  0.2803484650433388  0.9103199709188333  0.8251916918216271  1.0000
  H   H34       1.0  0.7196515349049553  0.08968002849313192  0.17480830824439958  1.0000
  H   H35       1.0  0.3964511939821913  0.748320632141571  0.8762815139223004  1.0000
  H   H36       1.0  0.6035488060602237  0.2516793680689919  0.12371848557158382  1.0000
  H   H37       1.0  0.8608373860349581  0.820617990066055  0.047317065749536244  1.0000
  H   H38       1.0  0.139162613913336  0.17938200934591023  0.9526829343164905  1.0000
  H   H39       1.0  0.8547751487151626  0.6803213661370138  0.04091692039925808  1.0000
  H   H40       1.0  0.14522485132619772  0.3196786340753474  0.9590830798448232  1.0000
  H   H41       1.0  0.17118061745526367  0.3252917878867938  0.2907554892392431  1.0000
  H   H42       1.0  0.8288193825871513  0.6747082123237691  0.7092445102546411  1.0000
  H   H43       1.0  0.07385563982399752  0.48181034330352407  0.2148915699353898  1.0000
  H   H44       1.0  0.9261443602173629  0.518189656908837  0.7851084303086915  1.0000
  H   H45       1.0  0.8839294630514658  0.10932164507953936  0.051127463576453556  1.0000
  H   H46       1.0  0.11607053689682809  0.8906783543324259  0.9488725364895731  1.0000
  H   H47       1.0  0.7699133284762001  0.25479817940868615  0.9686288950487297  1.0000
  H   H48       1.0  0.23008667156516024  0.7452018208036748  0.03137110519535153  1.0000
  H   H49       1.0  0.677950909706376  0.38603842753107187  0.9357054177945286  1.0000
  H   H50       1.0  0.32204909033498424  0.6139615726812893  0.06429458244955265  1.0000
  H   H51       1.0  0.6899054505252723  0.5257412551435984  0.9439355961526352  1.0000
  H   H52       1.0  0.3100945495171427  0.47425874506696447  0.05606440334124896  1.0000
  H   H53       1.0  0.4053422366234112  0.0964026959173187  0.8170678874085722  1.0000
  H   H54       1.0  0.5946577633248828  0.9035973034946465  0.18293211265745457  1.0000
  H   H55       1.0  0.3532379769429372  0.39874772416610893  0.879009083967315  1.0000
  H   H56       1.0  0.6467620230064116  0.6012522752440581  0.12099091534851458  1.0000
  H   H57       1.0  0.23295108107550974  0.3202103060940092  0.7643887467313875  1.0000
  H   H58       1.0  0.7670489188727844  0.679789693317956  0.2356112533346392  1.0000
  H   H59       1.0  0.5218312655717526  0.44248162046738904  0.780549601053342  1.0000
  H   H60       1.0  0.47816873446960784  0.5575183797449721  0.21945039919073936  1.0000
  H   H61       1.0  0.621223379774245  0.3393464829877892  0.44715105414446565  1.0000
  H   H62       1.0  0.3787766201751038  0.660653516422378  0.5528489451713641  1.0000
  H   H63       1.0  0.4354679638753752  0.18948376962821986  0.346862824981564  1.0000
  H   H64       1.0  0.5645320361659851  0.8105162305841411  0.6531371752625172  1.0000
  H   H65       1.0  0.36667980033288605  0.5596345487437809  0.680458961241634  1.0000
  H   H66       1.0  0.633320199615408  0.4403654506681844  0.31954103882439283  1.0000
  H   H67       1.0  0.32791089058045314  0.5602203972212314  0.8043648203535415  1.0000
  H   H68       1.0  0.6720891094619619  0.43977960298933144  0.19563517914034273  1.0000
  H   H69       1.0  0.20953577163520337  0.484097104122421  0.6843214760583896  1.0000
  H   H70       1.0  0.790464228406157  0.51590289608994  0.31567852418569164  1.0000
  H   H71       1.0  0.22667942039663988  0.24204797138349773  0.6042498377500028  1.0000
  H   H72       1.0  0.7733205795516541  0.7579520280284676  0.3957501623160239  1.0000
  H   H73       1.0  0.2362108929910533  0.14252594622385498  0.4264663305987285  1.0000
  H   H74       1.0  0.7637891070513616  0.857474053986708  0.5735336688951558  1.0000
  H   H75       1.0  0.5930267252660454  0.5415658817844983  0.6677811754988092  1.0000
  H   H76       1.0  0.4069732746822487  0.45843411762746694  0.3322188245672176  1.0000
  H   H77       1.0  0.7090270046109727  0.48450635070483206  0.5877863541720545  1.0000
  H   H78       1.0  0.2909729954314424  0.5154936495057307  0.4122136453218298  1.0000
  H   H79       1.0  0.7117636607297693  0.44733699208987443  0.7093884515538101  1.0000
  H   H80       1.0  0.2882363393126457  0.5526630081206884  0.29061154794007416  1.0000
  C   C1        1.0  0.06656200248902738  0.6672792152021232  0.54822146976295  1.0000
  C   C2        1.0  0.933437997552333  0.332720785010238  0.4517785304811312  1.0000
  C   C3        1.0  0.051619983832353306  0.6323364610171527  0.43960286567380974  1.0000
  C   C4        1.0  0.9483800162090068  0.36766353919520844  0.5603971345702716  1.0000
  C   C5        1.0  0.07846229799100071  0.7049168269273188  0.3806024290312075  1.0000
  C   C6        1.0  0.9215377019572931  0.29508317248464644  0.6193975710348193  1.0000
  C   C7        1.0  0.1221464651034066  0.812730288936065  0.4287458496470268  1.0000
  C   C8        1.0  0.8778535349379537  0.18726971127629594  0.5712541505970545  1.0000
  C   C9        1.0  0.15595089217208996  0.8899805942095158  0.3646414229073822  1.0000
  C   C10       1.0  0.8440491077762041  0.1100194052024495  0.6353585771586445  1.0000
  C   C11       1.0  0.05264399496732764  0.8684931620174987  0.25397297170584254  1.0000
  C   C12       1.0  0.9473560050740326  0.13150683819486242  0.7460270285382387  1.0000
  C   C13       1.0  0.03704536094183916  0.9618919394330698  0.20101611055649224  1.0000
  C   C14       1.0  0.962954639100576  0.03810806077749301  0.798983888937392  1.0000
  C   C15       1.0  0.3158369627976287  0.88943377647948  0.35942991707449684  1.0000
  C   C16       1.0  0.6841630372447862  0.11056622373108299  0.6405700824193874  1.0000
  C   C17       1.0  0.10943213544728149  0.7745958659615063  0.5966331382492018  1.0000
  C   C18       1.0  0.8905678645940788  0.22540413425085473  0.4033668619948795  1.0000
  C   C19       1.0  0.13837700148680304  0.8484640001748983  0.5389708789170833  1.0000
  C   C20       1.0  0.8616229985545574  0.1515360000374628  0.461029121326998  1.0000
  C   C21       1.0  0.18666092683004304  0.9629283790515155  0.5949389658502124  1.0000
  C   C22       1.0  0.8133390732113173  0.03707162116084555  0.40506103439386887  1.0000
  C   C23       1.0  0.6215974012366663  0.0016155296401270897  0.8803152009674062  1.0000
  C   C24       1.0  0.3784025988046941  0.998384470572234  0.11968479927667508  1.0000
  C   C25       1.0  0.6943249487399228  0.917469990521182  0.9131250437256047  1.0000
  C   C26       1.0  0.3056750513014375  0.08253000969117898  0.08687495651847661  1.0000
  C   C27       1.0  0.6128783635305902  0.8246890415565121  0.9125411854180924  1.0000
  C   C28       1.0  0.38712163641770386  0.17531095785545311  0.08745881464793426  1.0000
  C   C29       1.0  0.6795720152681864  0.7285970358591787  0.9456231566443231  1.0000
  C   C30       1.0  0.32042798477422846  0.2714029643513842  0.054376842849561166  1.0000
  C   C31       1.0  0.3979771761627326  0.9090052184810179  0.8493569461126627  1.0000
  C   C32       1.0  0.6020228238786276  0.09099478173134323  0.15064305413141865  1.0000
  C   C33       1.0  0.46155015976102204  0.8202838468117534  0.8784768776611274  1.0000
  C   C34       1.0  0.5384498401872722  0.1797161526002119  0.12152312240489921  1.0000
  C   C35       1.0  0.08283046192026641  0.31421116294339785  0.2192936771843112  1.0000
  C   C36       1.0  0.9171695381210939  0.6857888372689633  0.7807063230597701  1.0000
  C   C37       1.0  0.02895856793083328  0.39998266891573214  0.17804515509071125  1.0000
  C   C38       1.0  0.9710414320174606  0.6000173304962331  0.8219548449753153  1.0000
  C   C39       1.0  0.9140979001184378  0.3809444463372302  0.08713730184698142  1.0000
  C   C40       1.0  0.08590209992292261  0.6190555538751309  0.9128626983970999  1.0000
  C   C41       1.0  0.8561163058327017  0.47612438937814505  0.04652469081034096  1.0000
  C   C42       1.0  0.1438836942086587  0.5238756108342161  0.9534753094337404  1.0000
  C   C43       1.0  0.9201192053604912  0.19360219539044524  0.08503473749316534  1.0000
  C   C44       1.0  0.07988079468086927  0.8063978048219158  0.914965262750916  1.0000
  C   C45       1.0  0.8591570651679356  0.27503020675550666  0.03953679493746224  1.0000
  C   C46       1.0  0.14084293487342478  0.7249697934568543  0.960463205306619  1.0000
  C   C47       1.0  0.42938440769059444  0.2512694390233874  0.8215278893361779  1.0000
  C   C48       1.0  0.570615592350766  0.7487305611889736  0.17847211090790338  1.0000
  C   C49       1.0  0.34768151737669023  0.3465021535307642  0.800935150462589  1.0000
  C   C50       1.0  0.6523184826657247  0.6534978466797986  0.1990648490312953  1.0000
  C   C51       1.0  0.4106380743848146  0.4123234660140875  0.7356758251683367  1.0000
  C   C52       1.0  0.5893619256576005  0.5876765341964754  0.26432417432554745  1.0000
  C   C53       1.0  0.417418573601408  0.34868381275680976  0.6273317127604353  1.0000
  C   C54       1.0  0.582581426441007  0.651316187453753  0.372668286733449  1.0000
  C   C55       1.0  0.5280791695095303  0.37716662698301456  0.5812846338415834  1.0000
  C   C56       1.0  0.4719208304387637  0.6228333724289506  0.4187153662244433  1.0000
  C   C57       1.0  0.5331488076183238  0.31866829802116453  0.4809480725681801  1.0000
  C   C58       1.0  0.4668511923299702  0.6813317013908009  0.5190519274978465  1.0000
  C   C59       1.0  0.4294659274726323  0.23422824720883853  0.4249304280788883  1.0000
  C   C60       1.0  0.570534072568728  0.7657717530035225  0.575069572165193  1.0000
  C   C61       1.0  0.32325602171857176  0.5100910832196967  0.7257013049592429  1.0000
  C   C62       1.0  0.6767439782297224  0.48990891619226873  0.27429869510678384  1.0000
  C   C63       1.0  0.31373679665858906  0.2641572712935034  0.5702771519007097  1.0000
  C   C64       1.0  0.6862632033827712  0.7358427289188576  0.42972284834337154  1.0000
  C   C65       1.0  0.318672343393754  0.20729111187518967  0.4696909390683928  1.0000
  C   C66       1.0  0.6813276566476063  0.7927088883371715  0.5303090611756884  1.0000
  C   C67       1.0  0.6411140105648632  0.4677130627058316  0.6393162809549652  1.0000
  C   C68       1.0  0.358885989383431  0.5322869367061336  0.3606837191110615  1.0000
  N   N1        1.0  0.4763133125346027  0.9980014623144485  0.8498256273476854  1.0000
  N   N2        1.0  0.5236866875067576  0.0019985378979125055  0.15017437289639582  1.0000
  N   N3        1.0  0.8098314175972997  0.745023953165475  0.013860951851153405  1.0000
  N   N4        1.0  0.19016858244511523  0.25497604704508786  0.9861390476427309  1.0000
  N   N5        1.0  0.028473424587710412  0.2127624139944435  0.1735618399628115  1.0000
  N   N6        1.0  0.9715265754547046  0.7872375862161193  0.8264381595310728  1.0000
  N   N7        1.0  0.7337540585777862  0.4597741800393667  0.9693792984255784  1.0000
  N   N8        1.0  0.2662459414635741  0.5402258201729944  0.030620701818502898  1.0000
  O   O1        1.0  0.09991480484187976  0.05455813852140913  0.2597039505034782  1.0000
  O   O2        1.0  0.9000851951994805  0.9454418616909518  0.7402960497406029  1.0000
  O   O3        1.0  0.9643574238653442  0.9507926982240049  0.10784881716608401  1.0000
  O   O4        1.0  0.035642576177070825  0.049207301986558136  0.8921511823278003  1.0000
  O   O5        1.0  0.609579279175223  0.6386220619636228  0.908515968769082  1.0000
  O   O6        1.0  0.39042072077412576  0.3613779374465442  0.09148403054674756  1.0000
  O   O7        1.0  0.922838350205401  0.566680709019799  0.08822716260350638  1.0000
  O   O8        1.0  0.0771616498359594  0.433319291192562  0.9117728376405749  1.0000
  O   O9        1.0  0.5622089572006903  0.25788277714395386  0.8623353137760809  1.0000
  O   O10       1.0  0.4377910427476037  0.7421172222680115  0.1376646862899458  1.0000
  O   O11       1.0  0.34653915409945135  0.16032274643958802  0.7947721625849823  1.0000
  O   O12       1.0  0.6534608458488427  0.8396772529723772  0.20522783748104434  1.0000
