data_image0
_chemical_formula_structural       H20C36N4O8F8
_chemical_formula_sum              "H20 C36 N4 O8 F8"
_cell_length_a       8.056938778993223
_cell_length_b       10.016859356164133
_cell_length_c       10.410540101119812
_cell_angle_alpha    88.14586128124031
_cell_angle_beta     74.90829569214226
_cell_angle_gamma    70.87082238007682

_space_group_name_H-M_alt    "P 1"
_space_group_IT_number       1

loop_
  _space_group_symop_operation_xyz
  'x, y, z'

loop_
  _atom_site_type_symbol
  _atom_site_label
  _atom_site_symmetry_multiplicity
  _atom_site_fract_x
  _atom_site_fract_y
  _atom_site_fract_z
  _atom_site_occupancy
  H   H1        1.0  0.06194105153851435  0.402408869821971  0.7954471859179372  1.0000
  H   H2        1.0  0.9380589493507068  0.597591129956364  0.20455281455115443  1.0000
  H   H3        1.0  0.9813450336499593  0.03140050931466721  0.30403795410435747  1.0000
  H   H4        1.0  0.018654966760760814  0.9685994915201426  0.6959620454661476  1.0000
  H   H5        1.0  0.15008041094543564  0.8417336447890216  0.410335653755183  1.0000
  H   H6        1.0  0.8499195886536114  0.15826635497341782  0.589664346022545  1.0000
  H   H7        1.0  0.44230813278512054  0.665856021646873  0.28097011103944675  1.0000
  H   H8        1.0  0.5576918668247309  0.33414397811744667  0.7190298896965699  1.0000
  H   H9        1.0  0.3537742288124144  0.8882186703612469  0.9265400828097173  1.0000
  H   H10       1.0  0.646225770797437  0.11178132940307266  0.07345991792629919  1.0000
  H   H11       1.0  0.07035742040823387  0.05690714441905871  0.07248864079686686  1.0000
  H   H12       1.0  0.9296425804701826  0.9430928553573963  0.9275113587139361  1.0000
  H   H13       1.0  0.8955122288503696  0.324417754550829  0.9927969995851955  1.0000
  H   H14       1.0  0.10448777202804696  0.6755822452256258  0.007202999925607491  1.0000
  H   H15       1.0  0.6012940277329487  0.4784457735436099  0.1353079638775559  1.0000
  H   H16       1.0  0.3987059713984019  0.5215542272771844  0.8646920359598742  1.0000
  H   H17       1.0  0.6587759519688423  0.8160070313348254  0.8733965793618031  1.0000
  H   H18       1.0  0.3412240471625082  0.18399296948596905  0.1266034204756269  1.0000
  H   H19       1.0  0.9483977645442534  0.6431080339535127  0.7377849032122192  1.0000
  H   H20       1.0  0.05160223633416307  0.35689196582294225  0.2622150962985837  1.0000
  C   C1        1.0  0.46459195802253156  0.014871610599735196  0.3779794616807066  1.0000
  C   C2        1.0  0.5354080428558848  0.98512838917672  0.6220205378300964  1.0000
  C   C3        1.0  0.3401363361092463  0.09934399030447519  0.4874339546763526  1.0000
  C   C4        1.0  0.6598636630221044  0.9006560105163192  0.5125660451610776  1.0000
  C   C5        1.0  0.37425061170481244  0.08759270461852099  0.6127473270650915  1.0000
  C   C6        1.0  0.625749387905039  0.9124072951457985  0.3872526736709252  1.0000
  C   C7        1.0  0.24634529861827376  0.185333375962592  0.7314472118855184  1.0000
  C   C8        1.0  0.7536547005130768  0.8146666248582024  0.26855278795191173  1.0000
  C   C9        1.0  0.20008742731786913  0.8438551200476501  0.30255306520221953  1.0000
  C   C10       1.0  0.7999125722919823  0.15614487971666952  0.6974469355337971  1.0000
  C   C11       1.0  0.36188628036196313  0.7473286767825575  0.22936609514280787  1.0000
  C   C12       1.0  0.6381137192370839  0.252671322979882  0.7706339046349201  1.0000
  C   C13       1.0  0.42489205159439863  0.7614527673263138  0.09255443235625507  1.0000
  C   C14       1.0  0.5751079488163214  0.23854723350849596  0.9074455672142501  1.0000
  C   C15       1.0  0.31793126437465136  0.8729078345002966  0.0327701478522989  1.0000
  C   C16       1.0  0.682068736503765  0.12709216527615833  0.9672298516585041  1.0000
  C   C17       1.0  0.15776521774662958  0.9665562388423167  0.1111021193104574  1.0000
  C   C18       1.0  0.8422347818524172  0.03344376092012304  0.8888978804672707  1.0000
  C   C19       1.0  0.834595414149034  0.4336981341744491  0.970551486958934  1.0000
  C   C20       1.0  0.16540458674018677  0.566301865603886  0.02944851351015758  1.0000
  C   C21       1.0  0.6706588785741829  0.522502116958826  0.0493752467036032  1.0000
  C   C22       1.0  0.3293411223150379  0.47749788281950906  0.9506247537654884  1.0000
  C   C23       1.0  0.6010414554732519  0.6627922871259101  0.014845340058365745  1.0000
  C   C24       1.0  0.398958545415969  0.337207712652425  0.9851546604107257  1.0000
  C   C25       1.0  0.7044074132166624  0.7081730414854148  0.9029989679035731  1.0000
  C   C26       1.0  0.2955925859146881  0.2918269593353797  0.09700103193385687  1.0000
  C   C27       1.0  0.8661325944519586  0.6141058107100513  0.8274998378192056  1.0000
  C   C28       1.0  0.1338674059587614  0.3858941901247585  0.17250016175129965  1.0000
  C   C29       1.0  0.5562067707886843  0.5721962282244231  0.5801651469438168  1.0000
  C   C30       1.0  0.4437932301005366  0.42780377155391197  0.4198348535252747  1.0000
  C   C31       1.0  0.37235349824008995  0.6203940424203428  0.5827464218419839  1.0000
  C   C32       1.0  0.627646501358957  0.3796059573420967  0.41725357793574414  1.0000
  C   C33       1.0  0.31876417379576893  0.5439416587334395  0.5011639656520944  1.0000
  C   C34       1.0  0.681235825803278  0.456058341029  0.4988360341256336  1.0000
  C   C35       1.0  0.2390019541285423  0.7510741571203153  0.6688899503126852  1.0000
  C   C36       1.0  0.7609980450028083  0.24892584370047913  0.3311100495247449  1.0000
  N   N1        1.0  0.10366485364427055  0.9505927953854555  0.242444390309003  1.0000
  N   N2        1.0  0.8963351467664494  0.04940720544935448  0.7575556092615021  1.0000
  N   N3        1.0  0.927305608672191  0.47994696167462436  0.8618070077557151  1.0000
  N   N4        1.0  0.07269439220622541  0.5200530381018306  0.13819299175508773  1.0000
  O   O1        1.0  0.186950850361209  0.1350574332441469  0.8377582954244892  1.0000
  O   O2        1.0  0.8130491505280121  0.8649425665341882  0.16224170504460236  1.0000
  O   O3        1.0  0.21239355198388066  0.31716479043432105  0.7070814735335237  1.0000
  O   O4        1.0  0.7876064476151663  0.6828352093281185  0.2929185262442044  1.0000
  O   O5        1.0  0.2111973761792057  0.7469641920683108  0.7925931218269845  1.0000
  O   O6        1.0  0.7888026246992107  0.25303580770814416  0.20740687768381835  1.0000
  O   O7        1.0  0.16611440806179115  0.8541663030127717  0.6037376132871958  1.0000
  O   O8        1.0  0.8338855928166254  0.14583369676368313  0.3962623862236072  1.0000
  F   F1        1.0  0.18138328351743624  0.19014806669899448  0.4708912478880096  1.0000
  F   F2        1.0  0.8186167173609804  0.8098519330774605  0.5291087516227934  1.0000
  F   F3        1.0  0.42355131620590525  0.031216987470248682  0.25816292437419414  1.0000
  F   F4        1.0  0.5764486846833157  0.9687830123080864  0.7418370760948975  1.0000
  F   F5        1.0  0.6168397428419511  0.6404449073257154  0.6589848992208486  1.0000
  F   F6        1.0  0.38316025804727  0.35955509245261963  0.341015101248243  1.0000
  F   F7        1.0  0.14145861725075534  0.5821252297773881  0.49979635202215966  1.0000
  F   F8        1.0  0.8585413823482915  0.41787476998505135  0.5002036477555684  1.0000
