data_image0
_chemical_formula_structural       H58C48N8O10S2Cl2
_chemical_formula_sum              "H58 C48 N8 O10 S2 Cl2"
_cell_length_a       5.9464795994408695
_cell_length_b       26.02048284008035
_cell_length_c       8.28777791674097
_cell_angle_alpha    90.0
_cell_angle_beta     106.13891486602641
_cell_angle_gamma    90.0

_space_group_name_H-M_alt    "P 1"
_space_group_IT_number       1

loop_
  _space_group_symop_operation_xyz
  'x, y, z'

loop_
  _atom_site_type_symbol
  _atom_site_label
  _atom_site_symmetry_multiplicity
  _atom_site_fract_x
  _atom_site_fract_y
  _atom_site_fract_z
  _atom_site_occupancy
  H   H1        1.0  0.1908567835758146  0.3695325451528134  0.47959596017856454  1.0000
  H   H2        1.0  0.8091432166138396  0.8695325451512694  0.5204040395452896  1.0000
  H   H3        1.0  0.9412527632328113  0.36341382933272265  0.5360726058070758  1.0000
  H   H4        1.0  0.05874723743149366  0.8634138293311786  0.46392739517284454  1.0000
  H   H5        1.0  0.17729660758589993  0.32463961494935556  0.6251041969692815  1.0000
  H   H6        1.0  0.8227033926037542  0.8246396149478115  0.3748958027545725  1.0000
  H   H7        1.0  0.8248971438668562  0.45545936917607954  0.5515941937404804  1.0000
  H   H8        1.0  0.17510285463771155  0.9554593691745354  0.4484058059744382  1.0000
  H   H9        1.0  0.8166150557141814  0.5434652134209332  0.4385943049060644  1.0000
  H   H10       1.0  0.18338494447547282  0.043465213422477264  0.5614056948177897  1.0000
  H   H11       1.0  0.5655472963085997  0.5538448463301267  0.6378423173831669  1.0000
  H   H12       1.0  0.4344527038810546  0.053844846331670665  0.3621576823406873  1.0000
  H   H13       1.0  0.5744976007527587  0.46516289280213147  0.7475381742103661  1.0000
  H   H14       1.0  0.42550239991154604  0.9651628928005874  0.25246182676955425  1.0000
  H   H15       1.0  0.3959875727081802  0.3891993400829885  0.7809364984873121  1.0000
  H   H16       1.0  0.604012427481474  0.8891993400814444  0.2190635012365419  1.0000
  H   H17       1.0  0.1431431168176015  0.41659944231713286  0.959638490459526  1.0000
  H   H18       1.0  0.8568568833720527  0.9165994423155888  0.040361509264328056  1.0000
  H   H19       1.0  0.08925191166953837  0.35148901910122116  0.8972637137526093  1.0000
  H   H20       1.0  0.9107480885201158  0.8514890190996771  0.10273628597124482  1.0000
  H   H21       1.0  0.8877372084895656  0.4004735939776212  0.7970292590833556  1.0000
  H   H22       1.0  0.11226279170008854  0.9004735939760772  0.2029707406404984  1.0000
  H   H23       1.0  0.1911773152181544  0.789764182559517  0.7528896799037553  1.0000
  H   H24       1.0  0.8088226849714998  0.28976418256106107  0.2471103198200987  1.0000
  H   H25       1.0  0.9278788073093233  0.810376150188875  0.7756308991252935  1.0000
  H   H26       1.0  0.07212119119524457  0.310376150190419  0.224369100589625  1.0000
  H   H27       1.0  0.2588878404821808  0.47363434128964615  0.2779309317251598  1.0000
  H   H28       1.0  0.7411121580223871  0.9736343412881022  0.7220690679897588  1.0000
  H   H29       1.0  0.33948021664533323  0.5590098980636395  0.16583576124116803  1.0000
  H   H30       1.0  0.6605197840189716  0.05900989806518357  0.8341642397387523  1.0000
  H   H31       1.0  0.9219172597731177  0.49373951893816304  0.0245192067914083  1.0000
  H   H32       1.0  0.0780827404165365  0.9937395189366189  0.9754807929324457  1.0000
  H   H33       1.0  0.8407392533672807  0.40795169195127895  0.133680172464064  1.0000
  H   H34       1.0  0.15926074682237346  0.9079516919497349  0.8663198272597901  1.0000
  H   H35       1.0  0.6033031010447023  0.6723795767944317  0.995026288120029  1.0000
  H   H36       1.0  0.3966968974598655  0.1723795767959757  0.00497371159488956  1.0000
  H   H37       1.0  0.6894708710063653  0.7591885908270485  0.8966709628976134  1.0000
  H   H38       1.0  0.310529129183289  0.2591885908285925  0.10332903682624059  1.0000
  H   H39       1.0  0.26828654731152357  0.6943757662394017  0.7452051568603992  1.0000
  H   H40       1.0  0.7317134528781306  0.19437576624094577  0.25479484286345483  1.0000
  H   H41       1.0  0.18418319905265956  0.6086161693205189  0.848439224742797  1.0000
  H   H42       1.0  0.8158168011369946  0.1086161693220629  0.15156077498105705  1.0000
  H   H43       1.0  0.577286083177471  0.2379112066461901  0.9235054949386353  1.0000
  H   H44       1.0  0.4227139170121832  0.7379112066446462  0.07649450478521881  1.0000
  H   H45       1.0  0.5695869472162579  0.3064296419480038  0.9066588355471685  1.0000
  H   H46       1.0  0.4304130529733962  0.8064296419464597  0.09334116417668549  1.0000
  H   H47       1.0  0.7054337569863951  0.30094274145974376  0.6489375926655816  1.0000
  H   H48       1.0  0.29456624320325914  0.8009427414581997  0.3510624070582725  1.0000
  H   H49       1.0  0.9033162661692542  0.264372977714458  0.8138252153341902  1.0000
  H   H50       1.0  0.0966837340203999  0.764372977712914  0.18617478438966384  1.0000
  H   H51       1.0  0.4295932153797362  0.1838381981379569  0.45381436434935984  1.0000
  H   H52       1.0  0.5704067852845686  0.6838381981364128  0.5461856366305605  1.0000
  H   H53       1.0  0.4215580895952672  0.2525006492146904  0.43658894589122205  1.0000
  H   H54       1.0  0.5784419089093006  0.7525006492131464  0.5634110538236965  1.0000
  H   H55       1.0  0.09440552971974892  0.22410697971437  0.5474041717913731  1.0000
  H   H56       1.0  0.9055944687848188  0.724106979712826  0.45259582792354525  1.0000
  H   H57       1.0  0.2947702544840239  0.1888891743557216  0.7119422725072072  1.0000
  H   H58       1.0  0.7052297457056304  0.6888891743541776  0.28805772721664685  1.0000
  C   C1        1.0  0.20149407829214258  0.4537074328157833  0.6570817024807202  1.0000
  C   C2        1.0  0.7985059218975116  0.9537074328142393  0.34291829724313383  1.0000
  C   C3        1.0  0.9883819223511333  0.4766638853793729  0.5719281215439895  1.0000
  C   C4        1.0  0.011618077838520785  0.9766638853778288  0.42807187817986453  1.0000
  C   C5        1.0  0.9819642711222156  0.5262640987163831  0.5076490099687392  1.0000
  C   C6        1.0  0.018035729067438524  0.02626409871792716  0.4923509897551148  1.0000
  C   C7        1.0  0.19050911536985188  0.5535330315936413  0.5294206549679671  1.0000
  C   C8        1.0  0.8094908848198022  0.053533031595185354  0.470579344755887  1.0000
  C   C9        1.0  0.4041449086441155  0.5320166610696625  0.6179970956576362  1.0000
  C   C10       1.0  0.5958550915455386  0.0320166610712066  0.38200290406621784  1.0000
  C   C11       1.0  0.4075911310636872  0.4821067355705249  0.6798119439155297  1.0000
  C   C12       1.0  0.5924088691259669  0.9821067355689809  0.32018805580832427  1.0000
  C   C13       1.0  0.21150176427012887  0.39933722728597576  0.7236319540500815  1.0000
  C   C14       1.0  0.7884982359195253  0.8993372272844318  0.27636804567377254  1.0000
  C   C15       1.0  0.07376035243706415  0.3913440005161931  0.8517225734489027  1.0000
  C   C16       1.0  0.92623964775259  0.891344000514649  0.14827742627495136  1.0000
  C   C17       1.0  0.5444920248008411  0.4360980455182421  0.2112454521242781  1.0000
  C   C18       1.0  0.45550797370372675  0.9360980455166981  0.7887545475906405  1.0000
  C   C19       1.0  0.40328840613994504  0.4782237184635415  0.2221804280527679  1.0000
  C   C20       1.0  0.5967115940497091  0.9782237184619974  0.7778195716710861  1.0000
  C   C21       1.0  0.4483917430418026  0.5256797275464301  0.16035083111759446  1.0000
  C   C22       1.0  0.5516082571478516  0.025679727547974145  0.8396491686062596  1.0000
  C   C23       1.0  0.63673056255581  0.5314206471488098  0.09006322189350906  1.0000
  C   C24       1.0  0.3632694376338442  0.031420647150353774  0.909936777830345  1.0000
  C   C25       1.0  0.7773245087238936  0.4885585328346944  0.07975732593280939  1.0000
  C   C26       1.0  0.22267549146576052  0.9885585328331504  0.9202426737910446  1.0000
  C   C27       1.0  0.7314004285828078  0.4410952521726748  0.13976470217184803  1.0000
  C   C28       1.0  0.2685995716068464  0.9410952521711308  0.8602352975520061  1.0000
  C   C29       1.0  0.8868942982429048  0.635040556762742  0.9267426229464576  1.0000
  C   C30       1.0  0.11310570194674952  0.13504055676428597  0.07325737677739648  1.0000
  C   C31       1.0  0.7481440133568487  0.6781412043138516  0.940551448650559  1.0000
  C   C32       1.0  0.25185598730745606  0.17814120431539562  0.0594485523293614  1.0000
  C   C33       1.0  0.7960853656579967  0.7258319012016333  0.8868727963672036  1.0000
  C   C34       1.0  0.20391463453165737  0.22583190120317742  0.11312720335665029  1.0000
  C   C35       1.0  0.9866165808937589  0.7327801515900356  0.816571647790979  1.0000
  C   C36       1.0  0.013383417610808811  0.23278015159157958  0.18342835192393953  1.0000
  C   C37       1.0  0.12537423952582652  0.6897003272497528  0.8026465402062596  1.0000
  C   C38       1.0  0.8746257589787412  0.18970032725129696  0.19735345950865896  1.0000
  C   C39       1.0  0.07667449604882658  0.6418433179216295  0.8576776468050522  1.0000
  C   C40       1.0  0.9233255046154782  0.14184331792317356  0.1423223541748682  1.0000
  C   C41       1.0  0.5502252726548275  0.27042478086383853  0.8349279577326881  1.0000
  C   C42       1.0  0.4497747275348267  0.7704247808622944  0.16507204199116585  1.0000
  C   C43       1.0  0.7235925550874183  0.266865629768558  0.7312666975586448  1.0000
  C   C44       1.0  0.27640744341714946  0.766865629767014  0.26873330215627367  1.0000
  C   C45       1.0  0.4498345468412315  0.21988513030922416  0.5253228024410705  1.0000
  C   C46       1.0  0.5501654533484227  0.7198851303076801  0.4746771972827835  1.0000
  C   C47       1.0  0.2751333908077236  0.22248592908824447  0.6279903583251537  1.0000
  C   C48       1.0  0.7248666093819306  0.7224859290867004  0.3720096413987004  1.0000
  N   N1        1.0  0.12407988541627919  0.3617759811704912  0.5816878423210262  1.0000
  N   N2        1.0  0.8759201147733751  0.8617759811689472  0.4183121574028278  1.0000
  N   N3        1.0  0.6711858514956811  0.5812184840284577  0.03599600411151616  1.0000
  N   N4        1.0  0.32881414869397313  0.08121848403000172  0.9640039956123378  1.0000
  N   N5        1.0  0.8484400028024303  0.585779832514166  0.9778371680806291  1.0000
  N   N6        1.0  0.15155999570213757  0.08577983251571004  0.022162831634289407  1.0000
  N   N7        1.0  0.028275153887696972  0.7799608391101372  0.7604069895731256  1.0000
  N   N8        1.0  0.9717248463019572  0.2799608391116813  0.2395930101507286  1.0000
  O   O1        1.0  0.23974824082647453  0.37589677678593747  0.2863003138097923  1.0000
  O   O2        1.0  0.7602517593631796  0.8758967767843934  0.7136996859140616  1.0000
  O   O3        1.0  0.637923616843233  0.3739624222119143  0.4702239193514207  1.0000
  O   O4        1.0  0.3620763833464212  0.8739624222103702  0.5297760803724333  1.0000
  O   O5        1.0  0.5511149893139489  0.33625817836564714  0.18738462317148039  1.0000
  O   O6        1.0  0.44888501087570526  0.8362581783641031  0.8126153765523737  1.0000
  O   O7        1.0  0.3117747991952064  0.2687665583679232  0.7291226748636628  1.0000
  O   O8        1.0  0.6882252009944478  0.7687665583663791  0.2708773248601912  1.0000
  O   O9        1.0  0.6861104313005327  0.22117332239259202  0.6306819861066135  1.0000
  O   O10       1.0  0.31388956888912145  0.7211733223910479  0.3693180136172405  1.0000
  S   S1        1.0  0.4913436361107923  0.3759851068147892  0.2937282159741399  1.0000
  S   S2        1.0  0.5086563623937754  0.875985106813245  0.7062717837407785  1.0000
  Cl  Cl1       1.0  0.18404640451909  0.614117410434289  0.44216270827515736  1.0000
  Cl  Cl2       1.0  0.8159535961452149  0.11411741043583302  0.557837292704763  1.0000
