data_image0
_chemical_formula_structural       H92C88N60O20S8
_chemical_formula_sum              "H92 C88 N60 O20 S8"
_cell_length_a       4.261665454460844
_cell_length_b       25.89480187493036
_cell_length_c       24.33194506968427
_cell_angle_alpha    90.0
_cell_angle_beta     90.20645164277158
_cell_angle_gamma    90.0

_space_group_name_H-M_alt    "P 1"
_space_group_IT_number       1

loop_
  _space_group_symop_operation_xyz
  'x, y, z'

loop_
  _atom_site_type_symbol
  _atom_site_label
  _atom_site_symmetry_multiplicity
  _atom_site_fract_x
  _atom_site_fract_y
  _atom_site_fract_z
  _atom_site_occupancy
  H   H1        1.0  0.28838287945806484  0.45661008634505335  0.004974644978140916  1.0000
  H   H2        1.0  0.7116171205166483  0.9566100864429424  0.4950253549482664  1.0000
  H   H3        1.0  0.7116171203508938  0.5433899134645471  0.9950253550831374  1.0000
  H   H4        1.0  0.28838287929231043  0.04338991375283584  0.5049746451130118  1.0000
  H   H5        1.0  0.9104460821607051  0.4021486157838389  0.06681141502495702  1.0000
  H   H6        1.0  0.08955391781400801  0.902148615881728  0.4331885849014503  1.0000
  H   H7        1.0  0.08955391764825354  0.5978513840257615  0.9331885850363214  1.0000
  H   H8        1.0  0.9104460819949507  0.09785138431405027  0.5668114151598279  1.0000
  H   H9        1.0  0.7936144768163296  0.6036857345154737  0.09397473147945191  1.0000
  H   H10       1.0  0.20638552315838365  0.10368573441758457  0.4060252684469554  1.0000
  H   H11       1.0  0.2063855229926292  0.3963142656803046  0.9060252685818263  1.0000
  H   H12       1.0  0.793614476650575  0.8963142657781938  0.5939747316143228  1.0000
  H   H13       1.0  0.9659638370555446  0.6892429463721471  0.21913267561296673  1.0000
  H   H14       1.0  0.03403616291916872  0.18924294666043587  0.28086732431344064  1.0000
  H   H15       1.0  0.03403616275591668  0.3107570534374533  0.780867324037331  1.0000
  H   H16       1.0  0.96596383688979  0.8107570535353424  0.7191326757478376  1.0000
  H   H17       1.0  0.8582538138670737  0.6238602762062433  0.20229549927698992  1.0000
  H   H18       1.0  0.14174618610763962  0.12386027610835412  0.29770450064941745  1.0000
  H   H19       1.0  0.14174618594188515  0.37613972398953505  0.7977045007842882  1.0000
  H   H20       1.0  0.8582538137013191  0.8761397237012463  0.7022954994118609  1.0000
  H   H21       1.0  0.18956456987602552  0.6531119473971833  0.1700493538186311  1.0000
  H   H22       1.0  0.8104354300986877  0.15311194729929414  0.32995064610777625  1.0000
  H   H23       1.0  0.8104354299329332  0.346888052798595  0.8299506462426471  1.0000
  H   H24       1.0  0.18956456971027105  0.8468880528964843  0.670049353953502  1.0000
  H   H25       1.0  0.3899578054488398  0.7068130858232033  0.28619323296686416  1.0000
  H   H26       1.0  0.6100421945258734  0.20681308572531423  0.21380676695954323  1.0000
  H   H27       1.0  0.6100421943601189  0.29318691437257494  0.7138067670944142  1.0000
  H   H28       1.0  0.38995780528308527  0.7931869144704642  0.7861932331017351  1.0000
  H   H29       1.0  0.7245681423248223  0.4963668311532338  0.5444809485829425  1.0000
  H   H30       1.0  0.27543185731838193  0.996366831251123  0.9555190516132067  1.0000
  H   H31       1.0  0.27543185748413646  0.5036331686563666  0.45551905147833577  1.0000
  H   H32       1.0  0.7245681424905767  0.0036331689446553457  0.04448094844807155  1.0000
  H   H33       1.0  0.10914073304924542  0.5390777499446515  0.6131142992996786  1.0000
  H   H34       1.0  0.8908592665939589  0.0390777498467623  0.8868857008964703  1.0000
  H   H35       1.0  0.8908592667597134  0.4609222502511269  0.3868857007615996  1.0000
  H   H36       1.0  0.10914073321499988  0.9609222499628381  0.11311429916480777  1.0000
  H   H37       1.0  0.18998305623804507  0.6136128705191236  0.4171744393884406  1.0000
  H   H38       1.0  0.8100169437366681  0.11361287042123439  0.08282556053796668  1.0000
  H   H39       1.0  0.8100169435709136  0.3863871296766548  0.5828255606728376  1.0000
  H   H40       1.0  0.1899830560722906  0.8863871297745439  0.9171744395233115  1.0000
  H   H41       1.0  0.138005407783689  0.7189346016206996  0.4233140446207777  1.0000
  H   H42       1.0  0.8619945921910241  0.21893460190898822  0.07668595530562965  1.0000
  H   H43       1.0  0.8619945920252697  0.2810653981889009  0.5766859554405006  1.0000
  H   H44       1.0  0.13800540761793456  0.7810653982867901  0.9233140447556487  1.0000
  H   H45       1.0  0.03572427832122625  0.7502075889141069  0.3595556362350562  1.0000
  H   H46       1.0  0.964275721653487  0.2502075888162178  0.14044436369135113  1.0000
  H   H47       1.0  0.9642757214902349  0.2497924112816714  0.6404443634152415  1.0000
  H   H48       1.0  0.035724278155471786  0.7497924109933827  0.8595556363699272  1.0000
  H   H49       1.0  0.8089189142609157  0.6966508759993559  0.3842108742713837  1.0000
  H   H50       1.0  0.19108108571379745  0.19665087590146682  0.11578912565502374  1.0000
  H   H51       1.0  0.191081085548043  0.3033491238102445  0.6157891257898946  1.0000
  H   H52       1.0  0.8089189140976636  0.8033491239081336  0.884210873995274  1.0000
  H   H53       1.0  0.6098223386943209  0.8159888506602767  0.35741810143227193  1.0000
  H   H54       1.0  0.39017766128039233  0.31598885056238746  0.14258189849413547  1.0000
  H   H55       1.0  0.39017766346115224  0.18401114914932382  0.6425818986309256  1.0000
  H   H56       1.0  0.6098223385310688  0.684011149247213  0.8574181011561622  1.0000
  H   H57       1.0  0.44609944234552107  0.7370059551788452  0.18242562890292974  1.0000
  H   H58       1.0  0.5539005576291921  0.237005955080956  0.31757437102347763  1.0000
  H   H59       1.0  0.5539005574634376  0.26299404501693313  0.8175743711583485  1.0000
  H   H60       1.0  0.44609944452628103  0.7629940451148223  0.6824256290397198  1.0000
  H   H61       1.0  0.7535505690744697  0.7831939637134042  0.17550654554579248  1.0000
  H   H62       1.0  0.24644943090024343  0.283193964001693  0.3244934543806149  1.0000
  H   H63       1.0  0.2464494307369914  0.21680603609619617  0.8244934541045053  1.0000
  H   H64       1.0  0.7535505689087153  0.7168060361940853  0.6755065456806634  1.0000
  H   H65       1.0  0.3866268346344601  0.7947862192344095  0.144161189342942  1.0000
  H   H66       1.0  0.613373165340253  0.2947862195226983  0.35583881058346534  1.0000
  H   H67       1.0  0.6133731651744986  0.20521378057519088  0.8558388107183363  1.0000
  H   H68       1.0  0.3866268344687057  0.70521378067308  0.644161189477813  1.0000
  H   H69       1.0  0.8017934094200757  0.8673945029000306  0.17987540643279754  1.0000
  H   H70       1.0  0.1982065905546374  0.36739450318831934  0.32012459349360983  1.0000
  H   H71       1.0  0.19820659038888291  0.1326054969095698  0.8201245936284808  1.0000
  H   H72       1.0  0.8017934092543213  0.632605497007459  0.6798754065676684  1.0000
  H   H73       1.0  0.6261601062075243  0.9241369636879817  0.207006052215713  1.0000
  H   H74       1.0  0.37383989376718896  0.4241369635900926  0.29299394771069437  1.0000
  H   H75       1.0  0.37383989595045125  0.07586303612161864  0.7929939474365039  1.0000
  H   H76       1.0  0.6261601060417697  0.5758630362195077  0.7070060523505839  1.0000
  H   H77       1.0  0.4276372542710835  0.887800862545191  0.1554607508262268  1.0000
  H   H78       1.0  0.5723627457036297  0.3878008624473018  0.34453924910018063  1.0000
  H   H79       1.0  0.5723627455378753  0.11219913765058741  0.8445392492350516  1.0000
  H   H80       1.0  0.42763725410532905  0.6121991377484766  0.6554607509610978  1.0000
  H   H81       1.0  0.16800599736430502  0.9181766968071827  0.2674626885102068  1.0000
  H   H82       1.0  0.8319940026104081  0.4181766967092936  0.23253731141620052  1.0000
  H   H83       1.0  0.8319940024446537  0.08182330338859556  0.7325373115510715  1.0000
  H   H84       1.0  0.16800599720105297  0.5818233034864848  0.7674626882340972  1.0000
  H   H85       1.0  0.5009309042139286  0.9010644144989332  0.3073907794775431  1.0000
  H   H86       1.0  0.49906909576078456  0.40106441440104396  0.19260922044886425  1.0000
  H   H87       1.0  0.4990690955975325  0.0989355856968452  0.6926092201727546  1.0000
  H   H88       1.0  0.5009309040481742  0.5989355854085565  0.8073907796124139  1.0000
  H   H89       1.0  0.15989688728502802  0.8606521114794178  0.3076359794941482  1.0000
  H   H90       1.0  0.8401031126896852  0.3606521113815286  0.19236402043225914  1.0000
  H   H91       1.0  0.8401031125264331  0.13934788871636056  0.6923640201561495  1.0000
  H   H92       1.0  0.15989688711927355  0.6393478888142496  0.8076359796290191  1.0000
  C   C1        1.0  0.0398858279245957  0.43602461430419287  0.08084076450942924  1.0000
  C   C2        1.0  0.9601141720476152  0.9360246144020821  0.4191592358279587  1.0000
  C   C3        1.0  0.9601141742308774  0.5639753858915855  0.9191592355537682  1.0000
  C   C4        1.0  0.039885827761343653  0.0639753857936963  0.5808407642333197  1.0000
  C   C5        1.0  0.3547164698046779  0.503221547820205  0.07695954593392486  1.0000
  C   C6        1.0  0.6452835301675328  0.0032215477223157688  0.42304045440346305  1.0000
  C   C7        1.0  0.6452835300042808  0.4967784523755734  0.9230404541273534  1.0000
  C   C8        1.0  0.3547164696414259  0.9967784520872847  0.5769595456578153  1.0000
  C   C9        1.0  0.6279178492005293  0.5728905894569583  0.1035523380133024  1.0000
  C   C10       1.0  0.37208215077418383  0.07289058935906904  0.39644766191310504  1.0000
  C   C11       1.0  0.3720821506084294  0.4271094103526422  0.8964476620479759  1.0000
  C   C12       1.0  0.6279178513812892  0.9271094104505314  0.6035523381500925  1.0000
  C   C13       1.0  0.3155769413899098  0.5340412344837526  0.16886102623455174  1.0000
  C   C14       1.0  0.6844230585848033  0.034041234772041316  0.33113897369185563  1.0000
  C   C15       1.0  0.6844230584215513  0.46595876532584785  0.831138973415746  1.0000
  C   C16       1.0  0.31557694122415536  0.965958765423737  0.6688610263694227  1.0000
  C   C17       1.0  0.22270614203457478  0.497445381981114  0.12992439897486302  1.0000
  C   C18       1.0  0.7772938579401383  0.9974453820790031  0.37007560095154435  1.0000
  C   C19       1.0  0.7772938577743839  0.5025546178284864  0.8700756010864152  1.0000
  C   C20       1.0  0.22270614186882035  0.0025546181167751415  0.629924399109734  1.0000
  C   C21       1.0  0.323624100281535  0.5829181251474856  0.2671130544256491  1.0000
  C   C22       1.0  0.6763758996931782  0.08291812504959645  0.23288694550075825  1.0000
  C   C23       1.0  0.6763758995274237  0.41708187504829275  0.7328869456356292  1.0000
  C   C24       1.0  0.3236241001182829  0.9170818751461819  0.7671130541495395  1.0000
  C   C25       1.0  0.05407801928461221  0.6508767223400634  0.2082683642232245  1.0000
  C   C26       1.0  0.9459219806901011  0.1508767226283521  0.2917316357031829  1.0000
  C   C27       1.0  0.9459219805243466  0.34912327746953703  0.7917316358380537  1.0000
  C   C28       1.0  0.05407801911885774  0.8491232775674262  0.7082683643580954  1.0000
  C   C29       1.0  0.41207294588208315  0.6648263668186997  0.2890796238760424  1.0000
  C   C30       1.0  0.58792705409263  0.16482636672081039  0.21092037605036495  1.0000
  C   C31       1.0  0.5879270539268756  0.33517363337707873  0.7109203761852358  1.0000
  C   C32       1.0  0.4120729457188311  0.83517363308879  0.7890796235999327  1.0000
  C   C33       1.0  0.5249250435373956  0.5879126823804263  0.312451577454725  1.0000
  C   C34       1.0  0.4750749564373176  0.08791268228253715  0.18754842247168235  1.0000
  C   C35       1.0  0.4750749562715631  0.412087317815352  0.6875484226065534  1.0000
  C   C36       1.0  0.5249250433716411  0.9120873175270633  0.812451577589596  1.0000
  C   C37       1.0  0.9745167807014398  0.5605770038369541  0.5827908893418624  1.0000
  C   C38       1.0  0.025483218941764543  0.06057700373906486  0.9172091108542869  1.0000
  C   C39       1.0  0.025483219107519002  0.4394229959726464  0.41720911071941585  1.0000
  C   C40       1.0  0.9745167808671943  0.9394229960705356  0.08279088920699146  1.0000
  C   C41       1.0  0.64655388011294  0.5734065123075954  0.5141898695271856  1.0000
  C   C42       1.0  0.35344611953276667  0.07340651220970626  0.985810130257983  1.0000
  C   C43       1.0  0.3534461196960187  0.4265934878881829  0.4858101305340927  1.0000
  C   C44       1.0  0.6465538802786944  0.9265934879860721  0.01418986939231467  1.0000
  C   C45       1.0  0.3602010836821093  0.614519332754802  0.45066158462581263  1.0000
  C   C46       1.0  0.6397989162901015  0.11451933265691283  0.04933841571157534  1.0000
  C   C47       1.0  0.6397989161268495  0.3854806674409763  0.5493384154354658  1.0000
  C   C48       1.0  0.36020108351885727  0.8854806671526876  0.9506615843497029  1.0000
  C   C49       1.0  0.6766843714036611  0.6650569802842454  0.5059923371373202  1.0000
  C   C50       1.0  0.3233156282420456  0.1650569801863562  0.9940076626478483  1.0000
  C   C51       1.0  0.32331562840529765  0.33494301991153297  0.4940076629239581  1.0000
  C   C52       1.0  0.6766843715669132  0.8349430200094221  0.005992337413429794  1.0000
  C   C53       1.0  0.7794247864462236  0.6204383886618636  0.5330357383433998  1.0000
  C   C54       1.0  0.22057521319948306  0.12043838895015246  0.966964261441769  1.0000
  C   C55       1.0  0.2205752133627351  0.3795616111477367  0.46696426171787847  1.0000
  C   C56       1.0  0.7794247866119781  0.8795616112456259  0.03303573820852888  1.0000
  C   C57       1.0  0.6663001738583012  0.7673911063686577  0.4800996652414329  1.0000
  C   C58       1.0  0.3336998261139096  0.2673911062707685  0.019900335095955  1.0000
  C   C59       1.0  0.33369982595065745  0.23260889382712063  0.5199003348198454  1.0000
  C   C60       1.0  0.6663001736950491  0.7326088939250098  0.9800996649653233  1.0000
  C   C61       1.0  0.9443456537110733  0.7309346258533945  0.3962888451454271  1.0000
  C   C62       1.0  0.05565434626364001  0.23093462575550533  0.10371115478098022  1.0000
  C   C63       1.0  0.055654346097885554  0.26906537395620594  0.6037111549158511  1.0000
  C   C64       1.0  0.9443456535453187  0.7690653740540951  0.8962888452802981  1.0000
  C   C65       1.0  0.5923275531339618  0.8083797513147143  0.40116665811781377  1.0000
  C   C66       1.0  0.40767244684075143  0.3083797512168251  0.09883334180859359  1.0000
  C   C67       1.0  0.40767244667749936  0.19162024888106408  0.598833341532484  1.0000
  C   C68       1.0  0.5923275529682074  0.6916202485927753  0.9011666582526847  1.0000
  C   C69       1.0  0.47032354404203314  0.8105945576019763  0.48573609834163656  1.0000
  C   C70       1.0  0.5296764559301776  0.31059455750408715  0.014263901995751373  1.0000
  C   C71       1.0  0.5296764557669256  0.18940544259380207  0.5142639017196418  1.0000
  C   C72       1.0  0.47032354387878106  0.6894054423055134  0.985736098065527  1.0000
  C   C73       1.0  0.4993805861644789  0.7782411152375036  0.18089011651047496  1.0000
  C   C74       1.0  0.5006194138102343  0.2782411155257923  0.31910988341593244  1.0000
  C   C75       1.0  0.5006194136444799  0.2217588845720969  0.8191098835508034  1.0000
  C   C76       1.0  0.4993805859987244  0.7217588846699861  0.6808901166453459  1.0000
  C   C77       1.0  0.3856300229597873  0.8041682829077834  0.2328537790153862  1.0000
  C   C78       1.0  0.6143699770149258  0.30416828319607225  0.2671462209110212  1.0000
  C   C79       1.0  0.6143699768516738  0.19583171690181692  0.7671462206349116  1.0000
  C   C80       1.0  0.38563002279403286  0.6958317169997061  0.7328537791502571  1.0000
  C   C81       1.0  0.5789827627400617  0.8850374936518658  0.19208238071863104  1.0000
  C   C82       1.0  0.4210172372346516  0.38503749355397665  0.3079176192077763  1.0000
  C   C83       1.0  0.42101723706889715  0.11496250615773464  0.8079176193426472  1.0000
  C   C84       1.0  0.578982762574307  0.6149625062556238  0.6920823808535019  1.0000
  C   C85       1.0  0.30799640455861454  0.8854184430813168  0.2822320219897013  1.0000
  C   C86       1.0  0.6920035954160986  0.38541844336960546  0.21776797793670608  1.0000
  C   C87       1.0  0.692003595250344  0.1145815567282837  0.717767978071577  1.0000
  C   C88       1.0  0.3079964043953625  0.6145815568261729  0.7822320217135917  1.0000
  N   N1        1.0  0.026702589534805775  0.45520433432672097  0.13144014330538642  1.0000
  N   N2        1.0  0.9732974104399073  0.9552043344246101  0.368559856621021  1.0000
  N   N3        1.0  0.973297410274153  0.5447956654828795  0.8685598567558919  1.0000
  N   N4        1.0  0.02670258936905132  0.04479566538499031  0.6314401434402573  1.0000
  N   N5        1.0  0.2331410803765737  0.46361192481733504  0.04643943435294126  1.0000
  N   N6        1.0  0.7668589195981395  0.9636119249152242  0.4535605655734661  1.0000
  N   N7        1.0  0.766858919432385  0.5363880753784432  0.9535605657083371  1.0000
  N   N8        1.0  0.23314108021332164  0.03638807528055413  0.5464394340768316  1.0000
  N   N9        1.0  0.5575903465836969  0.5403228372851812  0.062432485599908986  1.0000
  N   N10       1.0  0.44240965339101634  0.04032283718729198  0.4375675143264984  1.0000
  N   N11       1.0  0.4424096532252619  0.4596771629105972  0.9375675144613693  1.0000
  N   N12       1.0  0.5575903464204447  0.9596771626223085  0.5624324853237994  1.0000
  N   N13       1.0  0.5169650006979084  0.5714673397183425  0.15516476272919158  1.0000
  N   N14       1.0  0.48303499927680466  0.07146733962045335  0.3448352371972158  1.0000
  N   N15       1.0  0.48303499911105013  0.4285326604774358  0.8448352373320868  1.0000
  N   N16       1.0  0.5169650005321539  0.9285326605753249  0.6551647628640624  1.0000
  N   N17       1.0  0.2535608560829663  0.6331475729834714  0.2531739918378907  1.0000
  N   N18       1.0  0.7464391438917468  0.13314757327176008  0.24682600808851668  1.0000
  N   N19       1.0  0.7464391437259925  0.36685242682612906  0.7468260082233876  1.0000
  N   N20       1.0  0.2535608559172119  0.8668524269240183  0.7531739919727616  1.0000
  N   N21       1.0  0.5793625221869001  0.6382844383142998  0.3252830311872386  1.0000
  N   N22       1.0  0.42063747778781313  0.13828443860258846  0.17471696873916878  1.0000
  N   N23       1.0  0.42063747762205866  0.36171556149530065  0.6747169688740398  1.0000
  N   N24       1.0  0.5793625243676599  0.8617155615931898  0.8252830313240288  1.0000
  N   N25       1.0  0.6631838920818319  0.547057385046631  0.34277028337289206  1.0000
  N   N26       1.0  0.3368161078928812  0.04705738494874185  0.1572297165535153  1.0000
  N   N27       1.0  0.3368161077271267  0.4529426147629694  0.6572297166883863  1.0000
  N   N28       1.0  0.6631838942625918  0.9529426148608585  0.8427702835096822  1.0000
  N   N29       1.0  0.9844414657248839  0.6114129652919995  0.5759563511800344  1.0000
  N   N30       1.0  0.015558533918320405  0.11141296558028826  0.9240436490161148  1.0000
  N   N31       1.0  0.015558534084074864  0.38858703451760096  0.42404364888124385  1.0000
  N   N32       1.0  0.9844414658906384  0.88858703461549  0.07595635104516352  1.0000
  N   N33       1.0  0.775941270806147  0.5358174635594626  0.546696879034326  1.0000
  N   N34       1.0  0.2240587288395596  0.03581746346157338  0.9533031207508428  1.0000
  N   N35       1.0  0.22405872900281165  0.4641825362501379  0.4533031210269524  1.0000
  N   N36       1.0  0.7759412709693991  0.9641825363480271  0.04669687931043549  1.0000
  N   N37       1.0  0.4360904041706753  0.5688914528541693  0.4733661812976883  1.0000
  N   N38       1.0  0.5639095958040379  0.06889145275628017  0.02663381862871899  1.0000
  N   N39       1.0  0.5639095956382835  0.43110854734160897  0.52663381876359  1.0000
  N   N40       1.0  0.4360904040049208  0.9311085474394982  0.9733661814325593  1.0000
  N   N41       1.0  0.4695021799555839  0.6613736626647219  0.46486249234686017  1.0000
  N   N42       1.0  0.5304978200191293  0.16137366256683278  0.035137507579547166  1.0000
  N   N43       1.0  0.5304978198558773  0.33862633753105637  0.5351375073034376  1.0000
  N   N44       1.0  0.46950217978982944  0.8386263376289456  0.9648624924817312  1.0000
  N   N45       1.0  0.7435408258359764  0.7674160032573504  0.4251142886216817  1.0000
  N   N46       1.0  0.2564591741387368  0.26741600315946124  0.07488571130472564  1.0000
  N   N47       1.0  0.25645917397298235  0.23258399693842793  0.5748857114395965  1.0000
  N   N48       1.0  0.743540825670222  0.7325839966501392  0.9251142887565525  1.0000
  N   N49       1.0  0.42532714511258174  0.8352486662946583  0.4368781365525311  1.0000
  N   N50       1.0  0.5746728548621314  0.3352486661967692  0.0631218633738762  1.0000
  N   N51       1.0  0.574672854696377  0.16475133390112  0.5631218635087472  1.0000
  N   N52       1.0  0.4253271449493297  0.6647513339990092  0.9368781362764216  1.0000
  N   N53       1.0  0.3247872238355177  0.8286866029577494  0.5346682059025366  1.0000
  N   N54       1.0  0.6752127758076865  0.32868660285986023  0.9653317942936127  1.0000
  N   N55       1.0  0.6752127759734409  0.17131339685185099  0.46533179415874176  1.0000
  N   N56       1.0  0.3247872240012722  0.6713133969497401  0.034668205767665626  1.0000
  N   N57       1.0  0.4274714356805358  0.8558938835310014  0.23590100488289212  1.0000
  N   N58       1.0  0.5725285642941772  0.35589388381929005  0.26409899504351525  1.0000
  N   N59       1.0  0.5725285664749372  0.1441061162785991  0.7640989951803054  1.0000
  N   N60       1.0  0.4274714355147814  0.6441061163764883  0.735901005017763  1.0000
  O   O1        1.0  0.5509019505525442  0.5027128827968687  0.33667529981480704  1.0000
  O   O2        1.0  0.4490980494221689  0.0027128826989794813  0.16332470011160036  1.0000
  O   O3        1.0  0.44909804925641444  0.49728711739890974  0.6633247002464713  1.0000
  O   O4        1.0  0.5509019503867898  0.997287117110621  0.8366752999496778  1.0000
  O   O5        1.0  0.8905019223631961  0.5567963929455156  0.3734809163962434  1.0000
  O   O6        1.0  0.10949807760901469  0.0567963928476265  0.12651908394114444  1.0000
  O   O7        1.0  0.10949807744576263  0.44320360725026264  0.6265190836650348  1.0000
  O   O8        1.0  0.8905019221999441  0.943203606961974  0.8734809161201338  1.0000
  O   O9        1.0  0.41355889547051683  0.8101423189613193  0.5795115486390164  1.0000
  O   O10       1.0  0.5864411041751898  0.3101423188634302  0.9204884511461523  1.0000
  O   O11       1.0  0.5864411043384419  0.1898576808482811  0.4204884514222619  1.0000
  O   O12       1.0  0.4135588956362713  0.6898576809461703  0.07951154850414546  1.0000
  O   O13       1.0  0.11426738027170895  0.8620088861004283  0.5301089086818708  1.0000
  O   O14       1.0  0.8857326193739977  0.362008886388717  0.9698910911032977  1.0000
  O   O15       1.0  0.8857326195372498  0.13799111370917216  0.4698910913794075  1.0000
  O   O16       1.0  0.11426738043746339  0.6379911138070614  0.03010890854699985  1.0000
  O   O17       1.0  0.2559950172209078  0.7789689300356637  0.27068453373612006  1.0000
  O   O18       1.0  0.7440049827538054  0.2789689299377745  0.22931546619028734  1.0000
  O   O19       1.0  0.7440049825880509  0.22103107016011464  0.7293154663251584  1.0000
  O   O20       1.0  0.25599501705515326  0.721031069871826  0.770684533870991  1.0000
  S   S1        1.0  0.17230613104719508  0.5280838712745229  0.2363375485701459  1.0000
  S   S2        1.0  0.8276938689275182  0.02808387156281171  0.2636624513562615  1.0000
  S   S3        1.0  0.827693871108278  0.4719161285350775  0.7636624514930515  1.0000
  S   S4        1.0  0.17230613088144064  0.9719161286329666  0.7363375487050168  1.0000
  S   S5        1.0  0.812527186631556  0.7255123206093473  0.5293855409670497  1.0000
  S   S6        1.0  0.18747281301415064  0.22551232089763595  0.970614458818119  1.0000
  S   S7        1.0  0.1874728131774027  0.27448767920025324  0.47061445909422855  1.0000
  S   S8        1.0  0.8125271867973104  0.7744876792981424  0.02938554083217874  1.0000
