data_image0
_chemical_formula_structural       H40C44N12O8Br4
_chemical_formula_sum              "H40 C44 N12 O8 Br4"
_cell_length_a       31.578248237975238
_cell_length_b       5.790121363701045
_cell_length_c       5.972436954562146
_cell_angle_alpha    90.0
_cell_angle_beta     90.0
_cell_angle_gamma    90.0

_space_group_name_H-M_alt    "P 1"
_space_group_IT_number       1

loop_
  _space_group_symop_operation_xyz
  'x, y, z'

loop_
  _atom_site_type_symbol
  _atom_site_label
  _atom_site_symmetry_multiplicity
  _atom_site_fract_x
  _atom_site_fract_y
  _atom_site_fract_z
  _atom_site_occupancy
  H   H1        1.0  0.2630893945538472  0.44828866736238204  0.6984022856555708  1.0000
  H   H2        1.0  0.23691060547821216  0.5517113337254975  0.19840228687468348  1.0000
  H   H3        1.0  0.7369106055102715  0.44828866736238204  0.6984022856555708  1.0000
  H   H4        1.0  0.7630893945859066  0.5517113337254975  0.19840228687468348  1.0000
  H   H5        1.0  0.3543534060430668  0.7441799833442103  0.8011879851397784  1.0000
  H   H6        1.0  0.14564659398899257  0.25582001774366925  0.30118798468453256  1.0000
  H   H7        1.0  0.645646594021052  0.7441799833442103  0.8011879851397784  1.0000
  H   H8        1.0  0.8543534060751262  0.25582001774366925  0.30118798468453256  1.0000
  H   H9        1.0  0.250169842876203  0.174835615078183  0.01441129653687739  1.0000
  H   H10       1.0  0.2498301571558564  0.8251643860096964  0.5144112969921232  1.0000
  H   H11       1.0  0.7498301571879158  0.174835615078183  0.01441129653687739  1.0000
  H   H12       1.0  0.7501698429082624  0.8251643860096964  0.5144112969921232  1.0000
  H   H13       1.0  0.2961435776780637  0.831044033060521  0.06685919718164267  1.0000
  H   H14       1.0  0.20385642235399565  0.16895596630027912  0.5668591976368885  1.0000
  H   H15       1.0  0.7038564220693814  0.831044033060521  0.06685919718164267  1.0000
  H   H16       1.0  0.7961435777101231  0.16895596630027912  0.5668591976368885  1.0000
  H   H17       1.0  0.4336364321670178  0.8451529532141017  0.8062614853258044  1.0000
  H   H18       1.0  0.06636356786504159  0.1548470461466984  0.306261486544917  1.0000
  H   H19       1.0  0.5663635675804274  0.8451529532141017  0.8062614853258044  1.0000
  H   H20       1.0  0.9336364321990771  0.1548470461466984  0.306261486544917  1.0000
  H   H21       1.0  0.4608813649294808  0.8171353677767723  0.06660789440332644  1.0000
  H   H22       1.0  0.039118635102578625  0.18286463158402771  0.5666078948585722  1.0000
  H   H23       1.0  0.5391186351346381  0.8171353677767723  0.06660789440332644  1.0000
  H   H24       1.0  0.9608813649615401  0.18286463158402771  0.5666078948585722  1.0000
  H   H25       1.0  0.4613482736664343  0.27233951776652554  0.6025000075139022  1.0000
  H   H26       1.0  0.038651726365625035  0.7276604833213539  0.10250000873301475  1.0000
  H   H27       1.0  0.5386517260810108  0.27233951776652554  0.6025000075139022  1.0000
  H   H28       1.0  0.9613482736984937  0.7276604833213539  0.10250000873301475  1.0000
  H   H29       1.0  0.4337296776813924  0.5361302181783212  0.5409652248454524  1.0000
  H   H30       1.0  0.06627032235066696  0.46386978118247885  0.04096522439020653  1.0000
  H   H31       1.0  0.5662703223827263  0.5361302181783212  0.5409652248454524  1.0000
  H   H32       1.0  0.9337296777134518  0.46386978118247885  0.04096522439020653  1.0000
  H   H33       1.0  0.5285717552858857  0.879524049690185  0.4640124209068641  1.0000
  H   H34       1.0  0.9714282444936188  0.12047595139769454  0.9640124213621099  1.0000
  H   H35       1.0  0.4714282444615594  0.879524049690185  0.4640124209068641  1.0000
  H   H36       1.0  0.028571755253826294  0.12047595139769454  0.9640124213621099  1.0000
  H   H37       1.0  0.5000000000320594  0.4646978242749876  0.14742977392627038  1.0000
  H   H38       1.0  6.411871034117667e-11  0.5353021750858123  0.6474297743815162  1.0000
  H   H39       1.0  0.5000000000320594  0.2343458771877409  0.9426900028972781  1.0000
  H   H40       1.0  6.411871034117667e-11  0.7656541239001387  0.4426900024420322  1.0000
  C   C1        1.0  0.3745086760632258  0.05352294028633437  0.42539013125275565  1.0000
  C   C2        1.0  0.1254913239688336  0.9464770608015451  0.9253901317080014  1.0000
  C   C3        1.0  0.6254913240008929  0.05352294028633437  0.42539013125275565  1.0000
  C   C4        1.0  0.8745086760952852  0.9464770608015451  0.9253901317080014  1.0000
  C   C5        1.0  0.33163791294179423  0.3745336969264896  0.3752625899697438  1.0000
  C   C6        1.0  0.16836208709026515  0.6254663024343105  0.8752625904249896  1.0000
  C   C7        1.0  0.6683620871223246  0.3745336969264896  0.3752625899697438  1.0000
  C   C8        1.0  0.8316379129738536  0.6254663024343105  0.8752625904249896  1.0000
  C   C9        1.0  0.3157926581249589  0.24565979547806954  0.5742664487031734  1.0000
  C   C10       1.0  0.18420734190710053  0.7543402038827305  0.07426644824792761  1.0000
  C   C11       1.0  0.6842073419391599  0.24565979547806954  0.5742664487031734  1.0000
  C   C12       1.0  0.8157926581570183  0.7543402038827305  0.07426644824792761  1.0000
  C   C13       1.0  0.28290130322228435  0.29611129064556924  0.7201675869871661  1.0000
  C   C14       1.0  0.21709869680977503  0.7038887087152308  0.22016758653192034  1.0000
  C   C15       1.0  0.7170986968418345  0.29611129064556924  0.7201675869871661  1.0000
  C   C16       1.0  0.78290130293767  0.7038887087152308  0.22016758653192034  1.0000
  C   C17       1.0  0.3413175075062709  0.04967944571996572  0.6026189271451019  1.0000
  C   C18       1.0  0.1586824925257885  0.9503205536408342  0.10261892668985605  1.0000
  C   C19       1.0  0.6586824925578478  0.04967944571996572  0.6026189271451019  1.0000
  C   C20       1.0  0.8413175075383302  0.9503205536408342  0.10261892668985605  1.0000
  C   C21       1.0  0.3346783859052228  0.8969113605384758  0.777714143378601  1.0000
  C   C22       1.0  0.16532161412683657  0.10308863882232414  0.27771414292335517  1.0000
  C   C23       1.0  0.665321614158896  0.8969113605384758  0.777714143378601  1.0000
  C   C24       1.0  0.8346783859372822  0.10308863882232414  0.27771414292335517  1.0000
  C   C25       1.0  0.27599397199997505  0.14200281105583615  0.8976056559132016  1.0000
  C   C26       1.0  0.22400602803208433  0.8579971883049637  0.39760565713231427  1.0000
  C   C27       1.0  0.7240060280641437  0.14200281105583615  0.8976056559132016  1.0000
  C   C28       1.0  0.7759939720320345  0.8579971883049637  0.39760565713231427  1.0000
  C   C29       1.0  0.3014968882457065  0.9466751084637562  0.9262758790235858  1.0000
  C   C30       1.0  0.19850311178635288  0.05332489089704368  0.42627588024269847  1.0000
  C   C31       1.0  0.6985031118184123  0.9466751084637562  0.9262758790235858  1.0000
  C   C32       1.0  0.801496888277766  0.05332489089704368  0.42627588024269847  1.0000
  C   C33       1.0  0.46204876375800946  0.7752605684815431  0.8874006105584  1.0000
  C   C34       1.0  0.037951236274049956  0.2247394308792569  0.38740061010315424  1.0000
  C   C35       1.0  0.5379512363061093  0.7752605684815431  0.8874006105584  1.0000
  C   C36       1.0  0.9620487637900688  0.2247394308792569  0.38740061010315424  1.0000
  C   C37       1.0  0.4619426109412117  0.4609889106527914  0.6192887037802407  1.0000
  C   C38       1.0  0.038057389090847715  0.5390110904350881  0.11928870499935332  1.0000
  C   C39       1.0  0.5380573888062334  0.4609889106527914  0.6192887037802407  1.0000
  C   C40       1.0  0.961942610973271  0.5390110904350881  0.11928870499935332  1.0000
  C   C41       1.0  0.5000000000320594  0.8088326937946035  0.5425279169376427  1.0000
  C   C42       1.0  6.411871034117667e-11  0.1911673055661965  0.04252791648239692  1.0000
  C   C43       1.0  0.5000000000320594  0.42226938028068584  0.9678597805179815  1.0000
  C   C44       1.0  6.411871034117667e-11  0.5777306190801141  0.46785978173709397  1.0000
  N   N1        1.0  0.36613869499245355  0.24701614874023675  0.2937923000860941  1.0000
  N   N2        1.0  0.13386130503960586  0.7529838523476428  0.7937923005413399  1.0000
  N   N3        1.0  0.6338613050716652  0.24701614874023675  0.2937923000860941  1.0000
  N   N4        1.0  0.8661386950245129  0.7529838523476428  0.7937923005413399  1.0000
  N   N5        1.0  0.46160869374857527  0.5194438874554979  0.8618636026066466  1.0000
  N   N6        1.0  0.03839130628348411  0.48055611190530206  0.36186360215140073  1.0000
  N   N7        1.0  0.5383913063155435  0.5194438874554979  0.8618636026066466  1.0000
  N   N8        1.0  0.9616086937806346  0.48055611190530206  0.36186360215140073  1.0000
  N   N9        1.0  0.5000000000320594  0.8730851466589419  0.7823728279677696  1.0000
  N   N10       1.0  6.411871034117667e-11  0.1269148527018581  0.2823728291868822  1.0000
  N   N11       1.0  0.5000000000320594  0.555632116827268  0.5122382275903464  1.0000
  N   N12       1.0  6.411871034117667e-11  0.44436788253353193  0.012238227135100591  1.0000
  O   O1        1.0  0.4045022134774066  0.9198042917352189  0.3998655922480278  1.0000
  O   O2        1.0  0.0954977865546528  0.08019570935266063  0.8998655927032737  1.0000
  O   O3        1.0  0.5954977865867122  0.9198042917352189  0.3998655922480278  1.0000
  O   O4        1.0  0.9045022135094659  0.08019570935266063  0.8998655927032737  1.0000
  O   O5        1.0  0.31825598412752204  0.5554930679283887  0.2955839456206403  1.0000
  O   O6        1.0  0.18174401590453731  0.44450693143241116  0.7955839460758861  1.0000
  O   O7        1.0  0.6817440159365967  0.5554930679283887  0.2955839456206403  1.0000
  O   O8        1.0  0.8182559841595815  0.44450693143241116  0.7955839460758861  1.0000
  Br  Br1       1.0  0.4074681034562994  0.36874019832898214  0.07499681677809149  1.0000
  Br  Br2       1.0  0.09253189657575998  0.6312598027588974  0.5749968172333373  1.0000
  Br  Br3       1.0  0.5925318962911457  0.36874019832898214  0.07499681677809149  1.0000
  Br  Br4       1.0  0.9074681034883587  0.6312598027588974  0.5749968172333373  1.0000
