data_image0
_chemical_formula_structural       H48C24N16Cl8Br8
_chemical_formula_sum              "H48 C24 N16 Cl8 Br8"
_cell_length_a       5.996114276922905
_cell_length_b       14.436192282776123
_cell_length_c       13.704615104488568
_cell_angle_alpha    90.0
_cell_angle_beta     92.17737301666513
_cell_angle_gamma    90.0

_space_group_name_H-M_alt    "P 1"
_space_group_IT_number       1

loop_
  _space_group_symop_operation_xyz
  'x, y, z'

loop_
  _atom_site_type_symbol
  _atom_site_label
  _atom_site_symmetry_multiplicity
  _atom_site_fract_x
  _atom_site_fract_y
  _atom_site_fract_z
  _atom_site_occupancy
  H   H1        1.0  0.15123587244106487  0.4230643385989537  0.2875625939297958  1.0000
  H   H2        1.0  0.848764126483661  0.9230643385028021  0.2124374059829653  1.0000
  H   H3        1.0  0.8487641279280933  0.5769356619014467  0.7124374062575415  1.0000
  H   H4        1.0  0.1512358722177395  0.07693566130489479  0.787562594204244  1.0000
  H   H5        1.0  0.36415297553908504  0.5045322164827356  0.3260725880704514  1.0000
  H   H6        1.0  0.6358470250533985  0.004532216578887103  0.1739274118424376  1.0000
  H   H7        1.0  0.6358470247669565  0.4954677833249614  0.6739274113866776  1.0000
  H   H8        1.0  0.3641529753157597  0.9954677832288098  0.8260725883448997  1.0000
  H   H9        1.0  0.7093463383867465  0.4498395887777126  0.40205190017380993  1.0000
  H   H10       1.0  0.290653662205737  0.949839588681561  0.09794809973907904  1.0000
  H   H11       1.0  0.2906536619824116  0.5501604110299843  0.5979481000135273  1.0000
  H   H12       1.0  0.7093463381634212  0.05016041112613585  0.9020519004482581  1.0000
  H   H13       1.0  0.753917137976486  0.32748281661782264  0.4188657934487772  1.0000
  H   H14       1.0  0.24608286094823967  0.8274828165216711  0.08113420646398382  1.0000
  H   H15       1.0  0.24608286232955554  0.6725171838825778  0.5811342060083516  1.0000
  H   H16       1.0  0.7539171377531606  0.17251718397872925  0.9188657937232255  1.0000
  H   H17       1.0  0.46883581138927327  0.21855910881461693  0.3660709292806228  1.0000
  H   H18       1.0  0.5311641892663269  0.7185591087184654  0.13392907136247462  1.0000
  H   H19       1.0  0.5311641889798849  0.7814408916857835  0.6339290709067146  1.0000
  H   H20       1.0  0.46883581110283135  0.28144089108923154  0.8660709288248627  1.0000
  H   H21       1.0  0.21111542645986855  0.25906590441179694  0.31040819205711045  1.0000
  H   H22       1.0  0.7888845741957317  0.7590659043156454  0.18959180858598693  1.0000
  H   H23       1.0  0.7888845739092898  0.7409340953958999  0.6895918081302268  1.0000
  H   H24       1.0  0.21111542617342655  0.24093409549205153  0.8104081916013502  1.0000
  H   H25       1.0  0.20889041153708326  0.32354089489183574  0.14721500015401212  1.0000
  H   H26       1.0  0.7911095890554003  0.8235408947956843  0.35278499975887684  1.0000
  H   H27       1.0  0.7911095888320749  0.6764591049158611  0.8527850000333252  1.0000
  H   H28       1.0  0.20889041131375793  0.17645910501201276  0.6472150004284604  1.0000
  H   H29       1.0  0.46550979065155373  0.33122813663995265  0.0845716837358033  1.0000
  H   H30       1.0  0.5344902099409299  0.8312281365438011  0.4154283161770857  1.0000
  H   H31       1.0  0.5344902097176044  0.6687718631677443  0.915428316451534  1.0000
  H   H32       1.0  0.4655097903651117  0.16877186326389582  0.5845716832800432  1.0000
  H   H33       1.0  0.8063117152575113  0.2293511727431281  0.2812373291342408  1.0000
  H   H34       1.0  0.1936882853349722  0.7293511726469767  0.2187626707786482  1.0000
  H   H35       1.0  0.19368828511164687  0.7706488277572723  0.7187626710530965  1.0000
  H   H36       1.0  0.8063117149710693  0.2706488278534238  0.7812373286784807  1.0000
  H   H37       1.0  0.8052140657615945  0.2770723707228713  0.1606304758930523  1.0000
  H   H38       1.0  0.19478593483088907  0.7770723706267197  0.33936952401983667  1.0000
  H   H39       1.0  0.1947859345444471  0.7229276290848257  0.8393695235640766  1.0000
  H   H40       1.0  0.8052140655382692  0.22292762918097717  0.6606304761675007  1.0000
  H   H41       1.0  0.7490833669029298  0.4395920811869124  0.13635522154378138  1.0000
  H   H42       1.0  0.2509166336895537  0.9395920817834642  0.36364477836910764  1.0000
  H   H43       1.0  0.25091663346622833  0.5604079186207845  0.8636447786435559  1.0000
  H   H44       1.0  0.7490833666164879  0.060407918716936085  0.6363552210880212  1.0000
  H   H45       1.0  0.7076570036517538  0.5144493481747823  0.2394258108375572  1.0000
  H   H46       1.0  0.2923429969407297  0.01444934757823043  0.2605741890753318  1.0000
  H   H47       1.0  0.2923429966542877  0.48555065232561806  0.7605741886195717  1.0000
  H   H48       1.0  0.7076570034284285  0.9855506522294665  0.7394258111120056  1.0000
  C   C1        1.0  0.33182223226613544  0.4355749304823467  0.2951207896981083  1.0000
  C   C2        1.0  0.6681777683263481  0.9355749310788986  0.2048792102147807  1.0000
  C   C3        1.0  0.6681777681030228  0.5644250693253503  0.7048792104892291  1.0000
  C   C4        1.0  0.3318222320428101  0.06442506942150178  0.7951207899725565  1.0000
  C   C5        1.0  0.6814350157821113  0.3808742888912703  0.37034891161404265  1.0000
  C   C6        1.0  0.31856498481037226  0.8808742887951188  0.12965108829884636  1.0000
  C   C7        1.0  0.3185649845239303  0.6191257116091301  0.6296510878430862  1.0000
  C   C8        1.0  0.6814350155587858  0.11912571170528162  0.8703489118884908  1.0000
  C   C9        1.0  0.3920720423211678  0.2700965825075709  0.31651837072038985  1.0000
  C   C10       1.0  0.6079279583344324  0.7700965824114194  0.18348162992270753  1.0000
  C   C11       1.0  0.6079279580479904  0.7299034173001261  0.6834816294669475  1.0000
  C   C12       1.0  0.39207204203472584  0.22990341739627754  0.8165183702646298  1.0000
  C   C13       1.0  0.38967783398588  0.3339735877411608  0.15605908520841408  1.0000
  C   C14       1.0  0.6103221649388458  0.8339735876450093  0.343940914704347  1.0000
  C   C15       1.0  0.6103221646524039  0.6660264120665361  0.8439409142485869  1.0000
  C   C16       1.0  0.3896778354303124  0.1660264121626877  0.6560590854829902  1.0000
  C   C17       1.0  0.7317588040198275  0.28204191453295163  0.2324347007473904  1.0000
  C   C18       1.0  0.2682411966357726  0.7820419144368002  0.267565299895707  1.0000
  C   C19       1.0  0.26824119634933064  0.7179580852747453  0.7675652994399469  1.0000
  C   C20       1.0  0.7317588037333856  0.21795808537089678  0.7324347002916303  1.0000
  C   C21       1.0  0.678907386203119  0.4449788416620261  0.20892949603490116  1.0000
  C   C22       1.0  0.32109261438936454  0.9449788415658745  0.29107050387798783  1.0000
  C   C23       1.0  0.32109261416603924  0.5550211581456708  0.7910705041524362  1.0000
  C   C24       1.0  0.678907385916677  0.05502115824182237  0.7089294955791411  1.0000
  N   N1        1.0  0.4317834428177593  0.42906966038338534  0.19797618814082363  1.0000
  N   N2        1.0  0.5682165577747242  0.9290696602872337  0.3020238117720654  1.0000
  N   N3        1.0  0.5682165575513988  0.5709303394243116  0.8020238120465137  1.0000
  N   N4        1.0  0.4317834425944341  0.07093033952046311  0.6979761884152719  1.0000
  N   N5        1.0  0.7780566664969006  0.37493381384631547  0.2741397024361469  1.0000
  N   N6        1.0  0.2219433324278251  0.8749338144428674  0.22586029747661418  1.0000
  N   N7        1.0  0.22194333214138312  0.6250661859613814  0.7258602970208542  1.0000
  N   N8        1.0  0.7780566679413331  0.12506618605753295  0.7741397027107231  1.0000
  N   N9        1.0  0.4346531827109779  0.3643332512462605  0.3601586474069936  1.0000
  N   N10       1.0  0.5653468179446222  0.864333251150109  0.1398413532361038  1.0000
  N   N11       1.0  0.5653468176581803  0.6356667492541399  0.6398413527803437  1.0000
  N   N12       1.0  0.434653182424536  0.13566674865758802  0.8601586469512336  1.0000
  N   N13       1.0  0.49028760915812397  0.2650138073156981  0.2213513974563956  1.0000
  N   N14       1.0  0.5097123914343596  0.7650138072195466  0.2786486024564934  1.0000
  N   N15       1.0  0.5097123911479177  0.7349861931847023  0.7786486020007333  1.0000
  N   N16       1.0  0.4902876089347985  0.23498619258815034  0.7213513977308439  1.0000
  Cl  Cl1       1.0  0.09651808146051805  0.6633271795239986  0.021325143051105628  1.0000
  Cl  Cl2       1.0  0.9034819191950823  0.16332717962015006  0.47867485759199174  1.0000
  Cl  Cl3       1.0  0.90348191890864  0.33667282028369844  0.9786748571362318  1.0000
  Cl  Cl4       1.0  0.09651808117407605  0.836672820187547  0.5213251425953456  1.0000
  Cl  Cl5       1.0  0.051080676984389645  0.38730082631767254  0.6408087762953028  1.0000
  Cl  Cl6       1.0  0.9489193231614432  0.8873008262215211  0.8591912241664829  1.0000
  Cl  Cl7       1.0  0.9489193233847686  0.6126991734900245  0.3591912238920345  1.0000
  Cl  Cl8       1.0  0.051080677207715  0.11269917358617595  0.1408087760208545  1.0000
  Br  Br1       1.0  0.2734107456447814  0.5385140449587458  0.10990427891409085  1.0000
  Br  Br2       1.0  0.7265892549477022  0.03851404505489727  0.3900957209987981  1.0000
  Br  Br3       1.0  0.7265892547243767  0.46148595484895116  0.8900957212732463  1.0000
  Br  Br4       1.0  0.2734107453583394  0.9614859554455031  0.6099042784583307  1.0000
  Br  Br5       1.0  0.2619529330910809  0.37514321324615635  0.4981627782851804  1.0000
  Br  Br6       1.0  0.7380470675014027  0.8751432131500049  0.0018372216277086019  1.0000
  Br  Br7       1.0  0.7380470672780772  0.6248567865615405  0.501837221902157  1.0000
  Br  Br8       1.0  0.2619529328046389  0.12485678665769213  0.9981627778294202  1.0000
