data_image0
_chemical_formula_structural       H48C24N16Cl4I4
_chemical_formula_sum              "H48 C24 N16 Cl4 I4"
_cell_length_a       5.916183783515622
_cell_length_b       13.544062579150138
_cell_length_c       11.919991219211624
_cell_angle_alpha    90.0
_cell_angle_beta     98.35327965659563
_cell_angle_gamma    90.0

_space_group_name_H-M_alt    "P 1"
_space_group_IT_number       1

loop_
  _space_group_symop_operation_xyz
  'x, y, z'

loop_
  _atom_site_type_symbol
  _atom_site_label
  _atom_site_symmetry_multiplicity
  _atom_site_fract_x
  _atom_site_fract_y
  _atom_site_fract_z
  _atom_site_occupancy
  H   H1        1.0  0.4786669040427409  0.3644400179897665  0.6392805268101348  1.0000
  H   H2        1.0  0.5213330955767367  0.8644400180211406  0.8607194728807789  1.0000
  H   H3        1.0  0.5213330965407572  0.6355599820729815  0.36071947299915547  1.0000
  H   H4        1.0  0.47866690331690126  0.13555998204160744  0.13928052692993334  1.0000
  H   H5        1.0  0.22764738189455494  0.28927453466076963  0.6101061488656646  1.0000
  H   H6        1.0  0.7723526177249226  0.7892745346921436  0.8898938508252491  1.0000
  H   H7        1.0  0.7723526186889431  0.7107254654019782  0.38989385094362566  1.0000
  H   H8        1.0  0.2276473811687153  0.2107254653706043  0.1101061489854632  1.0000
  H   H9        1.0  0.7246545731223305  0.1201812366479879  0.38316461214786485  1.0000
  H   H10       1.0  0.2753454267353279  0.6201812366793619  0.11683538778122397  1.0000
  H   H11       1.0  0.27534542746116764  0.87981876341476  0.6168353876614255  1.0000
  H   H12       1.0  0.72465457215831  0.37981876338338605  0.8831646120294883  1.0000
  H   H13       1.0  0.7950800501683073  0.06055171963414397  0.5177707136319266  1.0000
  H   H14       1.0  0.20491994945117023  0.5605517196655179  0.9822292860589872  1.0000
  H   H15       1.0  0.20491994872533048  0.939448280428604  0.4822292861787855  1.0000
  H   H16       1.0  0.7950800511323279  0.43944828039722994  0.017770713750303254  1.0000
  H   H17       1.0  0.25849696763570373  0.11228975583302649  0.616596562297121  1.0000
  H   H18       1.0  0.741503033673634  0.6122897558644004  0.8834034373923707  1.0000
  H   H19       1.0  0.7415030329477944  0.8877102434913906  0.3834034375121693  1.0000
  H   H20       1.0  0.258496966909864  0.38771024419834743  0.11659656241691953  1.0000
  H   H21       1.0  0.5342484696300976  0.05567321072192761  0.648925994644101  1.0000
  H   H22       1.0  0.46575152998938  0.5556732107533016  0.8510740050468127  1.0000
  H   H23       1.0  0.46575152926354035  0.9443267893408203  0.3510740051666113  1.0000
  H   H24       1.0  0.5342484705941182  0.44432678930944636  0.1489259947624775  1.0000
  H   H25       1.0  0.6916263418037736  0.2987342753590469  0.375271842811996  1.0000
  H   H26       1.0  0.3083736583049095  0.7987342753904209  0.12472815796501398  1.0000
  H   H27       1.0  0.3083736573408889  0.701265724703701  0.6247281578466373  1.0000
  H   H28       1.0  0.6916263425296132  0.2012657246723271  0.8752718426921975  1.0000
  H   H29       1.0  0.7497566234739073  0.3694517742189864  0.5037540574403294  1.0000
  H   H30       1.0  0.2502433763965949  0.8694517742503605  0.9962459430985053  1.0000
  H   H31       1.0  0.2502433771095909  0.6305482258437616  0.49624594236896097  1.0000
  H   H32       1.0  0.7497566227480675  0.13054822581238754  0.0037540575601279157  1.0000
  H   H33       1.0  0.8672457548455011  0.15422070651205352  0.6866721892856583  1.0000
  H   H34       1.0  0.1327542447739765  0.6542207065434275  0.8133278104052553  1.0000
  H   H35       1.0  0.13275424404813682  0.8457792935506944  0.31332781052505393  1.0000
  H   H36       1.0  0.8672457558095216  0.34577929351932046  0.18667218940403493  1.0000
  H   H37       1.0  0.8488033770479119  0.28653630233326316  0.6826998594164418  1.0000
  H   H38       1.0  0.15119662257156577  0.7865363023646371  0.817300140274472  1.0000
  H   H39       1.0  0.15119662353558633  0.7134636977294847  0.3173001403928486  1.0000
  H   H40       1.0  0.8488033763220721  0.2134636976981108  0.18269985953624027  1.0000
  H   H41       1.0  0.15656634045939946  0.19436675477655574  0.43861560758665374  1.0000
  H   H42       1.0  0.8434336593982591  0.6943667548079298  0.06138439234243509  1.0000
  H   H43       1.0  0.8434336601240987  0.8056332452861921  0.5613843922226365  1.0000
  H   H44       1.0  0.1565663411852391  0.3056332452548182  0.9386156074668551  1.0000
  H   H45       1.0  0.3561444205968628  0.1987493327256104  0.33797130183687785  1.0000
  H   H46       1.0  0.6438555792607956  0.6987493327569844  0.162028698092211  1.0000
  H   H47       1.0  0.6438555782967751  0.8012506673371375  0.6620286979738343  1.0000
  H   H48       1.0  0.3561444213227024  0.3012506673057635  0.8379713017170793  1.0000
  C   C1        1.0  0.4101754055476958  0.29402053901687425  0.6032770578496534  1.0000
  C   C2        1.0  0.5898245943228063  0.7940205390482483  0.8967229426891814  1.0000
  C   C3        1.0  0.5898245935969667  0.7059794610458737  0.39672294280897996  1.0000
  C   C4        1.0  0.4101754062606917  0.20597946101449968  0.10327705712010887  1.0000
  C   C5        1.0  0.7042373950945362  0.12315015234554982  0.47331214523459  1.0000
  C   C6        1.0  0.2957626047631221  0.6231501516385929  0.026687854694498855  1.0000
  C   C7        1.0  0.2957626057399864  0.876849847717198  0.5266878554226214  1.0000
  C   C8        1.0  0.7042373958203759  0.37684984768582414  0.9733121451147915  1.0000
  C   C9        1.0  0.43950722577440454  0.1181914887534761  0.6065221241336602  1.0000
  C   C10       1.0  0.5604927738450731  0.61819148878485  0.8934778755572536  1.0000
  C   C11       1.0  0.5604927731192334  0.8818085113092718  0.39347787567705206  1.0000
  C   C12       1.0  0.43950722673842507  0.3818085112778979  0.1065221242520368  1.0000
  C   C13       1.0  0.6814040076694142  0.299532239037732  0.4664877807006463  1.0000
  C   C14       1.0  0.31859599218824414  0.799532239069106  0.03351221922844255  1.0000
  C   C15       1.0  0.3185959929140838  0.700467761025016  0.533512219108644  1.0000
  C   C16       1.0  0.681404008395254  0.20046776099364197  0.9664877805808477  1.0000
  C   C17       1.0  0.775977352388817  0.21763974603438105  0.6443326586148302  1.0000
  C   C18       1.0  0.22402264723066062  0.717639745327424  0.8556673410760833  1.0000
  C   C19       1.0  0.22402264819468118  0.7823602540283668  0.35566734119446003  1.0000
  C   C20       1.0  0.7759773516629771  0.28236025399699294  0.14433265873462883  1.0000
  C   C21       1.0  0.33775351744775695  0.19740088502808464  0.4281578352239916  1.0000
  C   C22       1.0  0.662246482660926  0.6974008850594586  0.07184216555301834  1.0000
  C   C23       1.0  0.6622464833867657  0.8025991142963325  0.5718421654332199  1.0000
  C   C24       1.0  0.33775351648373647  0.3025991142649584  0.928157835105615  1.0000
  N   N1        1.0  0.4608959809132463  0.11491149504845678  0.4849868787845022  1.0000
  N   N2        1.0  0.5391040189444122  0.6149114950798308  0.015013121144586635  1.0000
  N   N3        1.0  0.5391040179803916  0.8850885050142911  0.51501312102621  1.0000
  N   N4        1.0  0.46089598163908596  0.3850885049829172  0.9849868786647036  1.0000
  N   N5        1.0  0.5336889620893672  0.21085960089968822  0.6599227189526319  1.0000
  N   N6        1.0  0.46631103753011033  0.7108596009310622  0.8400772807382818  1.0000
  N   N7        1.0  0.4663110368042706  0.7891403991630597  0.3400772808580803  1.0000
  N   N8        1.0  0.5336889630533878  0.28914039913168577  0.1599227190710085  1.0000
  N   N9        1.0  0.43202969168656613  0.2940360594708571  0.47902255028377877  1.0000
  N   N10       1.0  0.5679703081710924  0.794036059502231  0.020977449645310033  1.0000
  N   N11       1.0  0.5679703088969319  0.7059639405918908  0.5209774495255115  1.0000
  N   N12       1.0  0.43202969072254566  0.20596394056051687  0.9790225501654023  1.0000
  N   N13       1.0  0.8044453275038882  0.21608839983546838  0.5232867217923983  1.0000
  N   N14       1.0  0.1955546721155894  0.7160883998668423  0.9767132778985153  1.0000
  N   N15       1.0  0.19555467307960997  0.7839115994889486  0.47671327801689195  1.0000
  N   N16       1.0  0.8044453267780485  0.2839115994575747  0.023286721912196915  1.0000
  Cl  Cl1       1.0  0.9665364610936236  0.545671689480908  0.26379553584645205  1.0000
  Cl  Cl2       1.0  0.03346353876403501  0.04567168944953403  0.23620446408263684  1.0000
  Cl  Cl3       1.0  0.03346353780001449  0.4543283105818399  0.7362044639642603  1.0000
  Cl  Cl4       1.0  0.9665364618194631  0.9543283106132139  0.7637955357266534  1.0000
  I   I1        1.0  0.22065668208572273  0.41909070833281464  0.38353519445282874  1.0000
  I   I2        1.0  0.7793433177719357  0.9190907083641886  0.11646480547626002  1.0000
  I   I3        1.0  0.779343316807915  0.5809092917299332  0.6164648053578834  1.0000
  I   I4        1.0  0.22065668281156242  0.0809092916985593  0.8835351943330303  1.0000
