data_image0
_chemical_formula_structural       H44C42N4O4
_chemical_formula_sum              "H44 C42 N4 O4"
_cell_length_a       7.418708760392539
_cell_length_b       8.411579682603703
_cell_length_c       15.313238315030203
_cell_angle_alpha    88.69602004270973
_cell_angle_beta     85.11546236309128
_cell_angle_gamma    63.445709394363284

_space_group_name_H-M_alt    "P 1"
_space_group_IT_number       1

loop_
  _space_group_symop_operation_xyz
  'x, y, z'

loop_
  _atom_site_type_symbol
  _atom_site_label
  _atom_site_symmetry_multiplicity
  _atom_site_fract_x
  _atom_site_fract_y
  _atom_site_fract_z
  _atom_site_occupancy
  H   H1        1.0  0.9855509712959755  0.00980400104959719  0.34530171171435486  1.0000
  H   H2        1.0  0.014449029822829184  0.9901959980922125  0.6546982882374173  1.0000
  H   H3        1.0  0.8579602349296496  0.7060897457227241  0.1789195793911193  1.0000
  H   H4        1.0  0.1420397648262679  0.2939102534392635  0.8210804206233371  1.0000
  H   H5        1.0  0.50895188306996  0.5278811993007825  0.2632680187894396  1.0000
  H   H6        1.0  0.4910481180488446  0.4721187998410273  0.7367319811623324  1.0000
  H   H7        1.0  0.8566699811380319  0.3005895321024479  0.22889044823136823  1.0000
  H   H8        1.0  0.14333001932578282  0.699410468368399  0.7711095517358739  1.0000
  H   H9        1.0  0.6616039515223423  0.8965041350178989  0.46421056552698975  1.0000
  H   H10       1.0  0.33839604894147246  0.103495865452948  0.5357894344402523  1.0000
  H   H11       1.0  0.8148388241818141  0.15286209529661718  0.9671609090136026  1.0000
  H   H12       1.0  0.18516117491911394  0.8471379051944077  0.03283909101632372  1.0000
  H   H13       1.0  0.3397162175156774  0.5967543937853295  0.4126505682345823  1.0000
  H   H14       1.0  0.6602837829481376  0.40324560668551734  0.5873494317326597  1.0000
  H   H15       1.0  0.8739376093164767  0.07396333320310855  0.12459464293117085  1.0000
  H   H16       1.0  0.12606239180232784  0.9260366659387013  0.8754053570206012  1.0000
  H   H17       1.0  0.6706715518244051  0.8305750752837462  0.06937036681256022  1.0000
  H   H18       1.0  0.32932844863941  0.16942492518710053  0.9306296331546818  1.0000
  H   H19       1.0  0.5594769749010968  0.7916489885721036  0.979120802664546  1.0000
  H   H20       1.0  0.44052302621770767  0.2083510105697062  0.02087919728722598  1.0000
  H   H21       1.0  0.8183382201105847  0.7433225626296505  0.969318101554393  1.0000
  H   H22       1.0  0.18166177899034336  0.2566774378613743  0.030681898475533237  1.0000
  H   H23       1.0  0.41561472375440567  0.7805288724899248  0.5161606541166933  1.0000
  H   H24       1.0  0.5843852753465223  0.21947112800110008  0.48383934591323285  1.0000
  H   H25       1.0  0.7502158884059735  0.35623217774030724  0.8520621085411288  1.0000
  H   H26       1.0  0.24978411205784137  0.6437678227305397  0.14793789142611333  1.0000
  H   H27       1.0  0.8139087709327394  0.534423986327663  0.8625220245929295  1.0000
  H   H28       1.0  0.18609122816818857  0.46557601416336175  0.13747797543699683  1.0000
  H   H29       1.0  0.5618365934042737  0.5713763341988213  0.8878665169938378  1.0000
  H   H30       1.0  0.4381634070595411  0.4286236662720257  0.11213348297340424  1.0000
  H   H31       1.0  0.2423929968941267  0.9216393208671434  0.2121734433177315  1.0000
  H   H32       1.0  0.7576070035696881  0.07836067960370348  0.7878265566495106  1.0000
  H   H33       1.0  0.25374161979328913  0.39764980595753824  0.3879025310229488  1.0000
  H   H34       1.0  0.7462583806705257  0.6023501945133086  0.6120974689442932  1.0000
  H   H35       1.0  0.5013730333429984  0.03343023637743507  0.1664888979130028  1.0000
  H   H36       1.0  0.49862696575792964  0.9665697641135896  0.8335111021169235  1.0000
  H   H37       1.0  0.8099162449066574  0.36179981187689647  0.4195575484793173  1.0000
  H   H38       1.0  0.19008375484926032  0.6382001872850911  0.5804424515351391  1.0000
  H   H39       1.0  0.9849364804933037  0.38587697048947595  0.4840222926545506  1.0000
  H   H40       1.0  0.015063519970510955  0.614123029981371  0.5159777073126914  1.0000
  H   H41       1.0  0.9649763826791821  0.1829370651904515  0.48497680716866115  1.0000
  H   H42       1.0  0.03502361642174569  0.8170629353005733  0.5150231928612651  1.0000
  H   H43       1.0  0.50819640594674  0.27307757296382223  0.2577770805861578  1.0000
  H   H44       1.0  0.4918035931541879  0.7269224275272026  0.7422229194437684  1.0000
  C   C1        1.0  0.7485590787695654  0.5548569217248265  0.04538894642180246  1.0000
  C   C2        1.0  0.25144092033136245  0.44514307876619824  0.9546110536081239  1.0000
  C   C3        1.0  0.7277920981990159  0.7755564814681386  0.3367803237659858  1.0000
  C   C4        1.0  0.2722079015569018  0.22444351769384915  0.6632196762484706  1.0000
  C   C5        1.0  0.7607525860803661  0.42445600488659585  0.9855269538961301  1.0000
  C   C6        1.0  0.2392474136946486  0.5755439942648767  0.014473046770645325  1.0000
  C   C7        1.0  0.7819774235111266  0.5086314207354546  0.13374407811242733  1.0000
  C   C8        1.0  0.21802257558980137  0.4913685797555701  0.866255921917499  1.0000
  C   C9        1.0  0.6888736572205423  0.6667397435990561  0.2781564039462197  1.0000
  C   C10       1.0  0.3111263418803856  0.33326025689196875  0.7218435960837065  1.0000
  C   C11       1.0  0.5474492944845076  0.6035992064804596  0.3084640803642526  1.0000
  C   C12       1.0  0.45255070597930713  0.3964007939903872  0.6915359196029894  1.0000
  C   C13       1.0  0.8266209793356101  0.33544618135843396  0.16105256348663446  1.0000
  C   C14       1.0  0.17337901976531783  0.6645538191325907  0.8389474365432918  1.0000
  C   C15       1.0  0.8583429016957386  0.8609692142853888  0.3085280117341428  1.0000
  C   C16       1.0  0.14165709876807614  0.1390307861854581  0.6914719882330994  1.0000
  C   C17       1.0  0.6293629908772034  0.8120187230747937  0.4217585155516261  1.0000
  C   C18       1.0  0.37063700822372453  0.18798127741623116  0.5782414844783003  1.0000
  C   C19       1.0  0.8050470692289867  0.2525932415341293  0.014112892522133429  1.0000
  C   C20       1.0  0.19495292987194146  0.7474067589568952  0.9858871075077928  1.0000
  C   C21       1.0  0.4513097569414032  0.6442139359267435  0.3923409460667563  1.0000
  C   C22       1.0  0.5486902441774015  0.3557860632150663  0.6076590538850157  1.0000
  C   C23       1.0  0.8374269267081054  0.2079173996888512  0.10175419087298815  1.0000
  C   C24       1.0  0.16257307375570945  0.7920826007819957  0.8982458090942539  1.0000
  C   C25       1.0  0.6968617943367894  0.7396753291227556  0.014504045936690281  1.0000
  C   C26       1.0  0.3031382061270254  0.26032467134809134  0.9854959540305518  1.0000
  C   C27       1.0  0.49277510696741017  0.747393098541475  0.4506378396654075  1.0000
  C   C28       1.0  0.5072248934964046  0.25260690192937196  0.5493621603018345  1.0000
  C   C29       1.0  0.7203062359776614  0.47308639323346946  0.8919634570050134  1.0000
  C   C30       1.0  0.2796937644861534  0.5269136072373776  0.10803654296222864  1.0000
  C   C31       1.0  0.11852589170110674  0.2239536961918385  0.36793138324443764  1.0000
  C   C32       1.0  0.8814741094176978  0.7760463029499712  0.6320686167073344  1.0000
  C   C33       1.0  0.2535960051931119  0.026677221393710347  0.24831244858966206  1.0000
  C   C34       1.0  0.7464039959256928  0.9733227777480994  0.7516875513621101  1.0000
  C   C35       1.0  0.25662166474158377  0.2926115394803279  0.34676421780049316  1.0000
  C   C36       1.0  0.7433783363772208  0.7073884596614819  0.6532357821512789  1.0000
  C   C37       1.0  0.39403951764745715  0.08981748705825325  0.22344096913850062  1.0000
  C   C38       1.0  0.6059604828163578  0.9101825134125935  0.7765590308287414  1.0000
  C   C39       1.0  0.9610880508033708  0.29242095373777416  0.44357660053298525  1.0000
  C   C40       1.0  0.03891195031543364  0.7075790454040356  0.5564233994187867  1.0000
  C   C41       1.0  0.3967092647042763  0.22379627540847483  0.2744043170588779  1.0000
  C   C42       1.0  0.6032907350516413  0.7762037237535128  0.7255956829555783  1.0000
  N   N1        1.0  0.7768262241232221  0.635395010679163  0.19398733711745164  1.0000
  N   N2        1.0  0.22317377497770577  0.3646049898118616  0.8060126629124746  1.0000
  N   N3        1.0  0.12147342624324191  0.09142944224518461  0.31897265506139666  1.0000
  N   N4        1.0  0.8785265728576862  0.9085705582458402  0.6810273449685296  1.0000
  O   O1        1.0  0.9342636858670814  0.8513510491567534  0.231278507979031  1.0000
  O   O2        1.0  0.06573631459673342  0.1486489513140935  0.768721491988211  1.0000
  O   O3        1.0  0.8871567600257927  0.9520479171451949  0.37076789932066856  1.0000
  O   O4        1.0  0.11284324043802216  0.04795208332565195  0.6292321006465734  1.0000
