data_image0
_chemical_formula_structural       H40C44N2O10Br2
_chemical_formula_sum              "H40 C44 N2 O10 Br2"
_cell_length_a       7.606070084875309
_cell_length_b       11.258037845427504
_cell_length_c       13.179798818088184
_cell_angle_alpha    70.76409659025701
_cell_angle_beta     73.51660797700681
_cell_angle_gamma    81.38572027539215

_space_group_name_H-M_alt    "P 1"
_space_group_IT_number       1

loop_
  _space_group_symop_operation_xyz
  'x, y, z'

loop_
  _atom_site_type_symbol
  _atom_site_label
  _atom_site_symmetry_multiplicity
  _atom_site_fract_x
  _atom_site_fract_y
  _atom_site_fract_z
  _atom_site_occupancy
  H   H1        1.0  0.5514125975709162  0.414790266941706  0.060750931660729826  1.0000
  H   H2        1.0  0.4485874026140575  0.5852097332353673  0.9392490681242266  1.0000
  H   H3        1.0  0.07944203251370167  0.7070307926086377  0.4086571789227605  1.0000
  H   H4        1.0  0.9205579676712721  0.29296920756843564  0.5913428208621959  1.0000
  H   H5        1.0  0.5304539382446406  0.30931545106088865  0.32819937985358805  1.0000
  H   H6        1.0  0.4695460616094692  0.6906845488340709  0.6718006207615079  1.0000
  H   H7        1.0  0.5271755791858728  0.22440488016110724  0.5285185568033779  1.0000
  H   H8        1.0  0.4728244209991008  0.7755951200159661  0.4714814429815787  1.0000
  H   H9        1.0  0.340077434299934  0.33404570410268436  0.6627361784096243  1.0000
  H   H10       1.0  0.6599225660796205  0.6659542951749947  0.3372638213782828  1.0000
  H   H11       1.0  0.1551327966769985  0.5320192235103036  0.6011057819441802  1.0000
  H   H12       1.0  0.844867203507975  0.4679807766667696  0.39889421784077633  1.0000
  H   H13       1.0  0.10113512527481512  0.9414542886472391  0.08404911228964396  1.0000
  H   H14       1.0  0.8988648749101584  0.05854571152983414  0.9159508874953125  1.0000
  H   H15       1.0  0.4284056130521533  0.7663329512139471  0.2704810245997277  1.0000
  H   H16       1.0  0.5715943871328204  0.2336670489631261  0.7295189751852288  1.0000
  H   H17       1.0  0.6747732184018321  0.8745516269527724  0.2861040054739766  1.0000
  H   H18       1.0  0.3252267817831414  0.12544837322430089  0.7138959943109798  1.0000
  H   H19       1.0  0.5046155992070296  0.2208720493910668  0.06411641424595743  1.0000
  H   H20       1.0  0.49538440097794406  0.7791279507860065  0.9358835855389991  1.0000
  H   H21       1.0  0.25518299995540744  0.1134052358527712  0.04903627937310118  1.0000
  H   H22       1.0  0.7448170002295661  0.8865947643243021  0.9509637204118554  1.0000
  H   H23       1.0  0.6818650877929074  0.6278297274120727  0.14843762485058995  1.0000
  H   H24       1.0  0.31813491239206615  0.3721702727650006  0.8515623749343665  1.0000
  H   H25       1.0  0.7857887565951359  0.47052123589489264  0.18540304022021595  1.0000
  H   H26       1.0  0.2142112432589739  0.5294787640000671  0.81459696039488  1.0000
  H   H27       1.0  0.8650770318580342  0.5783771077685514  0.048666788483690784  1.0000
  H   H28       1.0  0.1349229683269395  0.42162289240852163  0.9513332113012658  1.0000
  H   H29       1.0  0.20962154055680357  0.2764250315890345  0.28720183565169755  1.0000
  H   H30       1.0  0.790378458172854  0.7235749674056682  0.7127981649756482  1.0000
  H   H31       1.0  0.9660878667209627  0.2813333096518541  0.3459693514857195  1.0000
  H   H32       1.0  0.03391213346401088  0.718666690525219  0.654030648299237  1.0000
  H   H33       1.0  0.08331448411298056  0.1543079746122266  0.292953167956218  1.0000
  H   H34       1.0  0.916685516071993  0.8456920255648467  0.7070468318287385  1.0000
  H   H35       1.0  0.24443089970628423  0.9725160590929474  0.4206591724381882  1.0000
  H   H36       1.0  0.7555691004786893  0.027483941084125753  0.5793408273467683  1.0000
  H   H37       1.0  0.2866823287885502  0.9989404279730904  0.5391039385018443  1.0000
  H   H38       1.0  0.7133176713964234  0.001059572203983043  0.4608960612831122  1.0000
  H   H39       1.0  0.40502015400250185  0.08131141584684086  0.39933712596316323  1.0000
  H   H40       1.0  0.594979845851608  0.9186885840481188  0.6006628746519328  1.0000
  C   C1        1.0  0.19672425437320412  0.6512878744685493  0.26273145804433684  1.0000
  C   C2        1.0  0.8032757458117695  0.3487121257085238  0.7372685417406197  1.0000
  C   C3        1.0  0.31240419348227333  0.5466247801358367  0.24494346033134454  1.0000
  C   C4        1.0  0.6875958067027002  0.4533752200412366  0.755056539453612  1.0000
  C   C5        1.0  0.44900464185577244  0.35778650110348814  0.38692904469210254  1.0000
  C   C6        1.0  0.5509953583292012  0.6422134990735852  0.6130709550928539  1.0000
  C   C7        1.0  0.4459530665010444  0.31093634146333105  0.4990714995645893  1.0000
  C   C8        1.0  0.5540469336839292  0.6890636587137422  0.5009285002203673  1.0000
  C   C9        1.0  0.34051522355451785  0.3729364459801035  0.5754487751843606  1.0000
  C   C10       1.0  0.6594847766304558  0.6270635541969697  0.4245512246005959  1.0000
  C   C11       1.0  0.23715439099099953  0.4845438863343121  0.5418103839395725  1.0000
  C   C12       1.0  0.7628456091939742  0.5154561138427611  0.458189615845384  1.0000
  C   C13       1.0  0.24222525094245392  0.5322417595541464  0.4291428064492491  1.0000
  C   C14       1.0  0.75777474924252  0.4677582406229268  0.5708571933357073  1.0000
  C   C15       1.0  0.3445716686689781  0.4700532269627996  0.35063555296454885  1.0000
  C   C16       1.0  0.6554283315159956  0.5299467732142736  0.6493644468204077  1.0000
  C   C17       1.0  0.38508481775863496  0.5251654240219339  0.13862622954972065  1.0000
  C   C18       1.0  0.6149151824263386  0.4748345761551394  0.8613737702352359  1.0000
  C   C19       1.0  0.9823148035261764  0.7282920495725538  0.1358504653963448  1.0000
  C   C20       1.0  0.0176851963279335  0.27170795032240613  0.8641495352187512  1.0000
  C   C21       1.0  0.12196451220146615  0.7564771196207345  0.18246943563244883  1.0000
  C   C22       1.0  0.8780354879835074  0.24352288055633892  0.8175305641525077  1.0000
  C   C23       1.0  0.1745702946289936  0.8768771295701998  0.14295595953534687  1.0000
  C   C24       1.0  0.8254297052251162  0.12312287032475995  0.8570440410797491  1.0000
  C   C25       1.0  0.3190479419078971  0.9325781975031693  0.16090914996365216  1.0000
  C   C26       1.0  0.6809520584716575  0.06742180177450968  0.8390908498242549  1.0000
  C   C27       1.0  0.44135813559641734  0.8662133031423263  0.22646004937534275  1.0000
  C   C28       1.0  0.5586418645885564  0.1337866970347471  0.7735399504096138  1.0000
  C   C29       1.0  0.5805897052177422  0.9261171987416207  0.2355633871669258  1.0000
  C   C30       1.0  0.4194102949672313  0.0738828014354526  0.7644366126180309  1.0000
  C   C31       1.0  0.5989073311065755  0.05428899227555601  0.17897047304274935  1.0000
  C   C32       1.0  0.4010926687475344  0.9457110076194036  0.8210295275723466  1.0000
  C   C33       1.0  0.4836353734079827  0.12251303563597678  0.1113543678894395  1.0000
  C   C34       1.0  0.5163646266407081  0.8774869633595888  0.888645632728607  1.0000
  C   C35       1.0  0.3443888634971803  0.061396301398715644  0.10308190648154035  1.0000
  C   C36       1.0  0.6556111366877931  0.9386036987783577  0.8969180933034161  1.0000
  C   C37       1.0  0.8101939542144383  0.5688687056353419  0.13734762796955807  1.0000
  C   C38       1.0  0.1898060456396716  0.43113129425961777  0.8626523726455378  1.0000
  C   C39       1.0  0.12443564522008171  0.14649907105832577  0.4495669815706845  1.0000
  C   C40       1.0  0.8755643549648919  0.8535009291187473  0.550433018214272  1.0000
  C   C41       1.0  0.09158227321904387  0.21949699977826395  0.3376665552582951  1.0000
  C   C42       1.0  0.9084177269659298  0.7805030003988094  0.6623334445266614  1.0000
  C   C43       1.0  0.27430742591521945  0.04304278241342412  0.4537028486871795  1.0000
  C   C44       1.0  0.7256925742697541  0.9569572177636491  0.546297151097777  1.0000
  N   N1        1.0  0.1561913687117485  0.6410381124919052  0.37279110968572604  1.0000
  N   N2        1.0  0.843808631473225  0.3589618876851679  0.6272088900992304  1.0000
  O   O1        1.0  0.49046649627013356  0.41927778570835644  0.14097650912913143  1.0000
  O   O2        1.0  0.50953350391484  0.5807222144687169  0.8590234906558251  1.0000
  O   O3        1.0  0.35323521440722455  0.6008424502372002  0.05013480046889399  1.0000
  O   O4        1.0  0.6467647857777491  0.3991575499398731  0.9498651993160625  1.0000
  O   O5        1.0  0.9093645478338049  0.8047847116985707  0.06685628191977659  1.0000
  O   O6        1.0  0.09063545202030499  0.19521528819638892  0.9331437186953194  1.0000
  O   O7        1.0  0.941446335434073  0.6053224780837753  0.17995285970053954  1.0000
  O   O8        1.0  0.05855366494548137  0.39467752119390376  0.8200471400873675  1.0000
  O   O9        1.0  0.031510272315807164  0.16854160614564762  0.5356516466068573  1.0000
  O   O10       1.0  0.9684897275383028  0.8314583937493122  0.4643483540082387  1.0000
  Br  Br1       1.0  0.7854531051637398  0.13601933428900678  0.19626279356157011  1.0000
  Br  Br2       1.0  0.21454689469037017  0.863980665605953  0.8037372070535258  1.0000
