data_image0
_chemical_formula_structural       H96C96N12O4F48P8
_chemical_formula_sum              "H96 C96 N12 O4 F48 P8"
_cell_length_a       10.739344775207073
_cell_length_b       19.601175963533056
_cell_length_c       13.686685505698833
_cell_angle_alpha    90.0
_cell_angle_beta     110.16373727201557
_cell_angle_gamma    90.0

_space_group_name_H-M_alt    "P 1"
_space_group_IT_number       1

loop_
  _space_group_symop_operation_xyz
  'x, y, z'

loop_
  _atom_site_type_symbol
  _atom_site_label
  _atom_site_symmetry_multiplicity
  _atom_site_fract_x
  _atom_site_fract_y
  _atom_site_fract_z
  _atom_site_occupancy
  H   H1        1.0  0.30683131171360867  0.19047526826686578  0.9352750108801163  1.0000
  H   H2        1.0  0.1931686889610512  0.6904752681767421  0.5647249893604531  1.0000
  H   H3        1.0  0.6931686884904191  0.8095247315528871  0.06472498950102089  1.0000
  H   H4        1.0  0.8068313112429767  0.30952473164301064  0.43527501102068417  1.0000
  H   H5        1.0  0.32227284273336665  0.21350790624939958  0.7637127167072812  1.0000
  H   H6        1.0  0.17772715666672542  0.713507906159276  0.7362872827569144  1.0000
  H   H7        1.0  0.6777271571263831  0.7864920940805268  0.23628728289551812  1.0000
  H   H8        1.0  0.8222728431930244  0.2864920941706503  0.26371271684588493  1.0000
  H   H9        1.0  0.7343869983241619  0.2016190017044094  0.8808158085768468  1.0000
  H   H10       1.0  0.7656130018097408  0.7016190016142858  0.6191841916056899  1.0000
  H   H11       1.0  0.2656130018798659  0.7983809981153434  0.11918419180429035  1.0000
  H   H12       1.0  0.23438699839428703  0.298380998205467  0.38081580877544735  1.0000
  H   H13       1.0  0.7373374169878056  0.17654182414554825  0.057790517446081005  1.0000
  H   H14       1.0  0.7626625824013121  0.6765418240554246  0.44220948229728607  1.0000
  H   H15       1.0  0.2626625828719441  0.8234581756742045  0.9422094821567183  1.0000
  H   H16       1.0  0.23733741780271575  0.32345817576432817  0.5577905180838513  1.0000
  H   H17       1.0  0.44920973290179617  0.24160670506762746  0.6631607978162922  1.0000
  H   H18       1.0  0.05079026777286372  0.7416067049775039  0.8368392024242773  1.0000
  H   H19       1.0  0.5507902673022317  0.7583932952622988  0.33683920256484506  1.0000
  H   H20       1.0  0.949209732086886  0.25839329484224893  0.16316079717852192  1.0000
  H   H21       1.0  0.6248585942126124  0.23708675737852816  0.7148491183653062  1.0000
  H   H22       1.0  0.8751414059212904  0.7370867572884046  0.7851508818172308  1.0000
  H   H23       1.0  0.37514140564713744  0.7629132424412246  0.2851508812374931  1.0000
  H   H24       1.0  0.12485859428273739  0.26291324253134823  0.21484911856390648  1.0000
  H   H25       1.0  0.7406026921991025  0.12485664709878326  0.7335403681766423  1.0000
  H   H26       1.0  0.7593973070045105  0.6248566470086597  0.7664596320078586  1.0000
  H   H27       1.0  0.2593973070746357  0.8751433527209695  0.2664596322064591  1.0000
  H   H28       1.0  0.24060269192494943  0.3751433528110931  0.23354036759690458  1.0000
  H   H29       1.0  0.7311854630238958  0.0023310718747184896  0.6881918914122067  1.0000
  H   H30       1.0  0.7688145361797172  0.5023310717845949  0.8118081087722941  1.0000
  H   H31       1.0  0.26881453718013204  0.9976689284552078  0.3118081089689306  1.0000
  H   H32       1.0  0.2311854630940209  0.49766892854533146  0.18819189161080707  1.0000
  H   H33       1.0  0.30443768314970143  0.01465065006988685  0.554649926840255  1.0000
  H   H34       1.0  0.19556231625039056  0.5146506504899367  0.9453500726239403  1.0000
  H   H35       1.0  0.6955623167100483  0.9853493497498659  0.4453500727625442  1.0000
  H   H36       1.0  0.8044376836093592  0.48534934983998956  0.05464992697885885  1.0000
  H   H37       1.0  0.314090232158278  0.1367698557978143  0.5994170235797591  1.0000
  H   H38       1.0  0.18590976758609198  0.6367698557076907  0.9005829766627743  1.0000
  H   H39       1.0  0.6859097680457498  0.863230144532112  0.40058297680137817  1.0000
  H   H40       1.0  0.8140902326179358  0.3632301441120621  0.09941702371836293  1.0000
  H   H41       1.0  0.600805924613632  0.9035470317163418  0.5939867881511546  1.0000
  H   H42       1.0  0.8991940755202708  0.4035470318064654  0.9060132120313823  1.0000
  H   H43       1.0  0.3991940752461177  0.09645296810341099  0.40601321145164465  1.0000
  H   H44       1.0  0.10080592468375708  0.5964529680132874  0.09398678834975494  1.0000
  H   H45       1.0  0.42523954006409764  0.907668793601971  0.5383758507208174  1.0000
  H   H46       1.0  0.07476046026628405  0.4076687936920945  0.961624148741414  1.0000
  H   H47       1.0  0.574760459795652  0.09233120621778187  0.46162414888198183  1.0000
  H   H48       1.0  0.9252395395934656  0.5923312061276582  0.038375850861385154  1.0000
  H   H49       1.0  0.7046903621114947  0.87380623906775  0.759169020433383  1.0000
  H   H50       1.0  0.7953096376781299  0.3738062386477  0.740830978970816  1.0000
  H   H51       1.0  0.29530963774825514  0.12619376126217635  0.2408309791694164  1.0000
  H   H52       1.0  0.2046903621816198  0.6261937611720527  0.25916902063198327  1.0000
  H   H53       1.0  0.6992198593550344  0.8299005784277401  0.9263064908220554  1.0000
  H   H54       1.0  0.8007801404345903  0.3299005785178637  0.5736935085821435  1.0000
  H   H55       1.0  0.30078014050471547  0.1700994213920127  0.0736935087807439  1.0000
  H   H56       1.0  0.19921985942515938  0.6700994213018892  0.4263064910206557  1.0000
  H   H57       1.0  0.7275301719140824  0.13927895474634164  0.19191102055468656  1.0000
  H   H58       1.0  0.7724698278193132  0.639278954656218  0.30808897996701845  1.0000
  H   H59       1.0  0.27246982828994537  0.8607210450734111  0.8080889798264507  1.0000
  H   H60       1.0  0.22753017145442464  0.36072104516353476  0.6919110204160827  1.0000
  H   H61       1.0  0.29593599958780886  0.9038402452465246  0.6472693622264963  1.0000
  H   H62       1.0  0.20406400108685094  0.40384024533664814  0.8527306380140731  1.0000
  H   H63       1.0  0.7040640002719408  0.09615975457322828  0.3527306373763029  1.0000
  H   H64       1.0  0.7959359991171768  0.5961597549932782  0.14726936236706412  1.0000
  H   H65       1.0  0.14876237495464548  0.042150623592028584  0.9935558080283279  1.0000
  H   H66       1.0  0.35123762478972453  0.542150623501905  0.5064441922142056  1.0000
  H   H67       1.0  0.8512376252493823  0.9578493762277243  0.006444192352809345  1.0000
  H   H68       1.0  0.6487623754143033  0.45784937631784783  0.49355580816693173  1.0000
  H   H69       1.0  0.10794995853737262  0.9769485231715854  0.06949810103663696  1.0000
  H   H70       1.0  0.3920500417367804  0.47694852326170917  0.43050189954310075  1.0000
  H   H71       1.0  0.892050041666655  0.023051476648167278  0.9305018993445002  1.0000
  H   H72       1.0  0.6079499584672475  0.5230514770682171  0.5694981008380365  1.0000
  H   H73       1.0  0.13345778441636624  0.9547151152979566  0.9511532443303155  1.0000
  H   H74       1.0  0.36654221532800374  0.45471511538808035  0.5488467559122179  1.0000
  H   H75       1.0  0.8665422157876616  0.045284884521796104  0.048846756050821734  1.0000
  H   H76       1.0  0.633457784531746  0.5452848844316726  0.4511532436905813  1.0000
  H   H77       1.0  0.26701159193824353  0.01922800400859553  0.8828364216584872  1.0000
  H   H78       1.0  0.23298840780612656  0.5192280039184719  0.6171635785840464  1.0000
  H   H79       1.0  0.7329884079215062  0.9807719958111573  0.11716357794431206  1.0000
  H   H80       1.0  0.7670115923979013  0.48077199590128084  0.382836421797091  1.0000
  H   H81       1.0  0.5472258057537687  0.9614278207113865  0.1819861318146933  1.0000
  H   H82       1.0  0.952774193635349  0.4614278208015101  0.3180138679286737  1.0000
  H   H83       1.0  0.452774194105981  0.038572179108366224  0.8180138677881059  1.0000
  H   H84       1.0  0.04722580656867887  0.5385721790182426  0.6819861324524636  1.0000
  H   H85       1.0  0.9455197228977446  0.08076675516536949  0.6818103620393159  1.0000
  H   H86       1.0  0.5544802772361581  0.5807667555854193  0.818189638143221  1.0000
  H   H87       1.0  0.05448027730628316  0.9192332446543833  0.31818963834182135  1.0000
  H   H88       1.0  0.4455197229678698  0.4192332447445069  0.18181036223791633  1.0000
  H   H89       1.0  0.9368007273580451  0.07343543890825562  0.5498825377535659  1.0000
  H   H90       1.0  0.5631992727758576  0.573435438818132  0.950117462428971  1.0000
  H   H91       1.0  0.0631992728459828  0.9265645609114972  0.4501174626275714  1.0000
  H   H92       1.0  0.4368007274281701  0.4265645610016208  0.049882537952166225  1.0000
  H   H93       1.0  0.8447843190506473  0.1390032871022139  0.5865547667675418  1.0000
  H   H94       1.0  0.6552156810832555  0.6390032870120903  0.9134452334149953  1.0000
  H   H95       1.0  0.15521568080910247  0.8609967127175389  0.4134452328352575  1.0000
  H   H96       1.0  0.3447843191207724  0.3609967128076625  0.08655476696614214  1.0000
  C   C1        1.0  0.5211634877329262  0.1795346328479005  0.013803054603384423  1.0000
  C   C2        1.0  0.9788365125864813  0.6795346327577769  0.4861969451380186  1.0000
  C   C3        1.0  0.4788365121268235  0.8204653674820258  0.9861969449994148  1.0000
  C   C4        1.0  0.021163487617546592  0.32046536757214933  0.5138030552431188  1.0000
  C   C5        1.0  0.4048953594228575  0.19273379449418812  0.9293142645874234  1.0000
  C   C6        1.0  0.09510464125180226  0.6927337944040646  0.5706857356531461  1.0000
  C   C7        1.0  0.5951046407811702  0.8072662053255647  0.07068573579371382  1.0000
  C   C8        1.0  0.9048953589522256  0.3072662054156883  0.4293142647279912  1.0000
  C   C9        1.0  0.41089001310593987  0.20627897772676312  0.8321533124985924  1.0000
  C   C10       1.0  0.08910998663843027  0.7062789776366395  0.6678466877439412  1.0000
  C   C11       1.0  0.5891099870980879  0.7937210220929898  0.16784668788254486  1.0000
  C   C12       1.0  0.9108900132213195  0.2937210221831133  0.3321533118588581  1.0000
  C   C13       1.0  0.6434574188106214  0.19867781286414513  0.8981907808819645  1.0000
  C   C14       1.0  0.8565425813232812  0.6986778127740215  0.6018092193005724  1.0000
  C   C15       1.0  0.35654258104912834  0.8013221874657812  0.10180921872083483  1.0000
  C   C16       1.0  0.1434574188807465  0.3013221875559048  0.3981907810805648  1.0000
  C   C17       1.0  0.642287628954787  0.18469759603889874  0.9965689019667455  1.0000
  C   C18       1.0  0.8577123711791157  0.6846975959487751  0.5034310982157915  1.0000
  C   C19       1.0  0.3577123712492409  0.8153024042910275  0.0034310984143917696  1.0000
  C   C20       1.0  0.142287628680634  0.3153024038709777  0.4965689013870078  1.0000
  C   C21       1.0  0.5332707237868635  0.2108291236040273  0.7102922711694654  1.0000
  C   C22       1.0  0.9667292750724713  0.7108291235139037  0.7897077282366974  1.0000
  C   C23       1.0  0.46672927607288617  0.7891708762157255  0.2897077284333338  1.0000
  C   C24       1.0  0.033270723856988677  0.2891708763058491  0.21029227136806583  1.0000
  C   C25       1.0  0.5280900170868308  0.1387180266662889  0.6706622858909088  1.0000
  C   C26       1.0  0.9719099827027938  0.6387180265761654  0.8293377135132901  1.0000
  C   C27       1.0  0.471909982772919  0.8612819731534638  0.3293377137118905  1.0000
  C   C28       1.0  0.028090017156955832  0.36128197324358746  0.17066228608950912  1.0000
  C   C29       1.0  0.644997933588525  0.10081546248431378  0.6934034912657503  1.0000
  C   C30       1.0  0.8550020665453777  0.6008154623941901  0.8065965089167867  1.0000
  C   C31       1.0  0.35500206627122477  0.8991845373354391  0.30659650833704905  1.0000
  C   C32       1.0  0.1449979336586501  0.3991845374255626  0.1934034914643506  1.0000
  C   C33       1.0  0.6397185772092605  0.03171861479926923  0.6683228268242948  1.0000
  C   C34       1.0  0.8602814229246423  0.5317186147091456  0.8316771733582423  1.0000
  C   C35       1.0  0.3602814229947674  0.9682813850204836  0.3316771735568426  1.0000
  C   C36       1.0  0.13971857727938564  0.46828138511060713  0.16832282702289514  1.0000
  C   C37       1.0  0.517274124248932  0.9998465988194458  0.6206244940460496  1.0000
  C   C38       1.0  0.9827258755406926  0.4998465983993959  0.8793755053581492  1.0000
  C   C39       1.0  0.48272587561081776  0.0001534015104804979  0.3793755055567497  1.0000
  C   C40       1.0  0.017274124319057095  0.5001534014203569  0.12062449424464992  1.0000
  C   C41       1.0  0.4004222440618179  0.03821164359696897  0.5949543913368467  1.0000
  C   C42       1.0  0.0995777556825521  0.5382116435068454  0.9050456089056869  1.0000
  C   C43       1.0  0.5995777557979318  0.9617883562227838  0.4050456082659526  1.0000
  C   C44       1.0  0.9004222445214756  0.4617883563129075  0.0949543914754504  1.0000
  C   C45       1.0  0.4056823392229016  0.1073877758108036  0.6194943124663365  1.0000
  C   C46       1.0  0.09431766052146838  0.6073877762308535  0.880505687776197  1.0000
  C   C47       1.0  0.5943176609811262  0.8926122240089492  0.3805056879148007  1.0000
  C   C48       1.0  0.9056823396825594  0.3926122240990728  0.11949431260494028  1.0000
  C   C49       1.0  0.511427453487499  0.9237134676860718  0.6046956107218929  1.0000
  C   C50       1.0  0.9885725466464037  0.42371346777619545  0.8953043894606442  1.0000
  C   C51       1.0  0.4885725463722507  0.07628653213368099  0.39530438888090635  1.0000
  C   C52       1.0  0.011427453557624104  0.5762865320435574  0.10469561092049323  1.0000
  C   C53       1.0  0.6124713805342185  0.8698767564620484  0.7752101800496329  1.0000
  C   C54       1.0  0.8875286195996842  0.36987675604199843  0.7247898201329039  1.0000
  C   C55       1.0  0.3875286193255312  0.130123243867878  0.22478981955316626  1.0000
  C   C56       1.0  0.11247138060434367  0.6301232437777544  0.27521018024823335  1.0000
  C   C57       1.0  0.6064959458490295  0.845527081172772  0.8680789451352764  1.0000
  C   C58       1.0  0.8935040533545834  0.3455270812628955  0.6319210550492245  1.0000
  C   C59       1.0  0.3935040530804304  0.15447291864698093  0.13192105446948682  1.0000
  C   C60       1.0  0.10649594591915469  0.6544729190670308  0.3680789453338768  1.0000
  C   C61       1.0  0.5150482492822006  0.1581784146914595  0.11538888144305766  1.0000
  C   C62       1.0  0.9849517510372069  0.658178414601336  0.3846111182983454  1.0000
  C   C63       1.0  0.4849517505775491  0.8418215851282933  0.8846111181597416  1.0000
  C   C64       1.0  0.0150482488225429  0.34182158521841693  0.6153888813044539  1.0000
  C   C65       1.0  0.629085095374087  0.1380411351356642  0.19734243243309954  1.0000
  C   C66       1.0  0.8709149043593087  0.6380411350455406  0.3026575680886055  1.0000
  C   C67       1.0  0.3709149048299408  0.861958865194262  0.8026575679480377  1.0000
  C   C68       1.0  0.12908509584471897  0.3619588647742122  0.6973424322925317  1.0000
  C   C69       1.0  0.38166407025025956  0.8864575233815766  0.7115504209953009  1.0000
  C   C70       1.0  0.11833592949411052  0.3864575234717001  0.7884495792472327  1.0000
  C   C71       1.0  0.6183359299537683  0.1135424764381763  0.28844957938583654  1.0000
  C   C72       1.0  0.8816640707099174  0.6135424763480527  0.21155042113390454  1.0000
  C   C73       1.0  0.1650484078200783  0.9887488386440002  0.019151634244955102  1.0000
  C   C74       1.0  0.3349515921097966  0.48874883822395027  0.4808483655564445  1.0000
  C   C75       1.0  0.8349515920396714  0.011251161685926166  0.980848365357844  1.0000
  C   C76       1.0  0.6650484077499532  0.5112511615958026  0.5191516340463548  1.0000
  C   C77       1.0  0.3953776535705109  0.9890898069620456  0.03794902564716048  1.0000
  C   C78       1.0  0.10462234635936399  0.4890898070521692  0.4620509741542391  1.0000
  C   C79       1.0  0.6046223462892389  0.010910193367880652  0.9620509739556389  1.0000
  C   C80       1.0  0.8953776535003858  0.5109101932777571  0.5379490254485602  1.0000
  C   C81       1.0  0.3684654664158652  0.010902598415400405  0.9348358477055286  1.0000
  C   C82       1.0  0.1315345333285049  0.5109025983252768  0.565164152537005  1.0000
  C   C83       1.0  0.6315345334438845  0.9890974014043523  0.06516415189727068  1.0000
  C   C84       1.0  0.8684654668755228  0.48909740149447606  0.4348358478441323  1.0000
  C   C85       1.0  0.5272353460293727  0.9783439904665524  0.10206682512704546  1.0000
  C   C86       1.0  0.9727646546343127  0.4783439900465025  0.39793317539269557  1.0000
  C   C87       1.0  0.47276465417465513  0.021656009863373935  0.8979331752540919  1.0000
  C   C88       1.0  0.027235345569715085  0.5216560097732503  0.6020668249884418  1.0000
  C   C89       1.0  0.049242227688602785  0.15508552780993828  0.631832413334697  1.0000
  C   C90       1.0  0.4507577720557673  0.6550855277198147  0.8681675869078365  1.0000
  C   C91       1.0  0.950757772515425  0.8449144720098146  0.3681675870464403  1.0000
  C   C92       1.0  0.5492422281482605  0.3449144720999381  0.13183241347330077  1.0000
  C   C93       1.0  0.9374565442212235  0.10957242891935522  0.6112040951583033  1.0000
  C   C94       1.0  0.5625434559126792  0.6095724288292317  0.8887959050242336  1.0000
  C   C95       1.0  0.06254345563852624  0.8904275709003976  0.3887959044444959  1.0000
  C   C96       1.0  0.43745654429134856  0.39042757099052117  0.11120409535690365  1.0000
  N   N1        1.0  0.5289633304993062  0.20763278068477795  0.8176643941886753  1.0000
  N   N2        1.0  0.9710366696345963  0.7076327811048279  0.6823356059938616  1.0000
  N   N3        1.0  0.4710366697047216  0.7923672191349749  0.18233560619246206  1.0000
  N   N4        1.0  0.02896333022515322  0.29236721922509845  0.3176643936089375  1.0000
  N   N5        1.0  0.501043868442015  0.8907458910874928  0.6993022767534622  1.0000
  N   N6        1.0  0.9989561316918876  0.3907458911776165  0.8006977234290746  1.0000
  N   N7        1.0  0.4989561317620128  0.10925410873225991  0.3006977236276751  1.0000
  N   N8        1.0  0.001043868167862012  0.6092541091523098  0.19930227617372456  1.0000
  N   N9        1.0  0.13956962487803212  0.19160317712504507  0.6479904818463914  1.0000
  N   N10       1.0  0.36043037579662773  0.6916031770349215  0.8520095183941782  1.0000
  N   N11       1.0  0.8604303749817177  0.8083968232048812  0.35200951775640776  1.0000
  N   N12       1.0  0.6395696244074002  0.3083968227848313  0.1479904819869593  1.0000
  O   O1        1.0  0.30099097778698447  0.9771096961545677  0.08220406677543793  1.0000
  O   O2        1.0  0.19900902214289043  0.47710969624469124  0.41779593302596174  1.0000
  O   O3        1.0  0.6990090224170433  0.02289030366518516  0.9177959336056993  1.0000
  O   O4        1.0  0.8009909777168593  0.5228903040852351  0.5822040665768375  1.0000
  F   F1        1.0  0.3918441348061839  0.6477648929646876  0.585022429005442  1.0000
  F   F2        1.0  0.1081558649381862  0.1477648930548113  0.9149775712370916  1.0000
  F   F3        1.0  0.6081558644675541  0.35223510736523855  0.4149775713776593  1.0000
  F   F4        1.0  0.8918441352658417  0.8522351072751149  0.08502242914404574  1.0000
  F   F5        1.0  0.38786567255616794  0.7643637125585734  0.6064463707288035  1.0000
  F   F6        1.0  0.11213432811849175  0.264363712648697  0.8935536295117659  1.0000
  F   F7        1.0  0.6121343273035817  0.23563628726117938  0.3935536288739957  1.0000
  F   F8        1.0  0.887865672085536  0.7356362871710558  0.10644637086937131  1.0000
  F   F9        1.0  0.5834009594195066  0.703977826415717  0.6867147845728936  1.0000
  F   F10       1.0  0.9165990407143959  0.20397782650584068  0.8132852156096434  1.0000
  F   F11       1.0  0.41659904078452115  0.29602217340403575  0.31328521580824376  1.0000
  F   F12       1.0  0.08340095948963183  0.7960221733139121  0.1867147847714939  1.0000
  F   F13       1.0  0.5670821269102422  0.776275546340097  0.5493163416850424  1.0000
  F   F14       1.0  0.9329178732236605  0.27627554643022056  0.9506836584974945  1.0000
  F   F15       1.0  0.4329178729495075  0.2237244534796559  0.4506836579177569  1.0000
  F   F16       1.0  0.06708212698036738  0.7237244538997057  0.04931634188364282  1.0000
  F   F17       1.0  0.5680360142042699  0.6591645064580673  0.5257995047435842  1.0000
  F   F18       1.0  0.9319639859296329  0.15916450654819092  0.9742004954389528  1.0000
  F   F19       1.0  0.4319639859997581  0.34083549336168545  0.4742004956375532  1.0000
  F   F20       1.0  0.06803601427439485  0.8408354932715619  0.025799504942184453  1.0000
  F   F21       1.0  0.3759991523318735  0.7208317187849611  0.44707078768125036  1.0000
  F   F22       1.0  0.12400084759800131  0.22083171887508474  0.05292921212014919  1.0000
  F   F23       1.0  0.6240008478721543  0.27916828154496515  0.5529292126998868  1.0000
  F   F24       1.0  0.8759991522617484  0.7791682814548415  0.9470707874826502  1.0000
  F   F25       1.0  0.39246212045669215  0.456487900860985  0.8033057682181678  1.0000
  F   F26       1.0  0.10753788021796756  0.9564879007708615  0.6966942320224015  1.0000
  F   F27       1.0  0.6075378797473356  0.5435120989587678  0.19669423216296947  1.0000
  F   F28       1.0  0.8924621199860602  0.04351209904889142  0.30330576835873563  1.0000
  F   F29       1.0  0.6084626173320961  0.44889836693318563  0.9202367683012321  1.0000
  F   F30       1.0  0.8915373824575284  0.9488983668430621  0.5797632311029667  1.0000
  F   F31       1.0  0.3915373825276537  0.5511016328865672  0.0797632313015671  1.0000
  F   F32       1.0  0.10846261740222116  0.051101632976690806  0.4202367684998325  1.0000
  F   F33       1.0  0.469887100360382  0.3544742903653635  0.8878430901361266  1.0000
  F   F34       1.0  0.03011289903970993  0.8544742902752399  0.6121569093280689  1.0000
  F   F35       1.0  0.5301128994993677  0.6455257099645628  0.11215690946667262  1.0000
  F   F36       1.0  0.9698871008200398  0.1455257095445129  0.3878430902747304  1.0000
  F   F37       1.0  0.6481263912613643  0.35726118846278526  0.8280289980197054  1.0000
  F   F38       1.0  0.8518736088725383  0.8572611883726617  0.6719710021628313  1.0000
  F   F39       1.0  0.35187360894266345  0.6427388118671411  0.17197100236143179  1.0000
  F   F40       1.0  0.1481263913314895  0.14273881144709114  0.3280289982183059  1.0000
  F   F41       1.0  0.5689362151516291  0.4591113429491367  0.7427277644297393  1.0000
  F   F42       1.0  0.9310637849822736  0.9591113428590131  0.7572722357527976  1.0000
  F   F43       1.0  0.4310637847081206  0.5408886568706162  0.2572722351730599  1.0000
  F   F44       1.0  0.06893621522175426  0.04088865696073972  0.24272776462833973  1.0000
  F   F45       1.0  0.4324155017524592  0.3640987593437031  0.7112816727582401  1.0000
  F   F46       1.0  0.06758449892220064  0.8640987592535795  0.7887183274823295  1.0000
  F   F47       1.0  0.5675844984515686  0.6359012409862232  0.2887183276228972  1.0000
  F   F48       1.0  0.9324155009375491  0.1359012410763468  0.21128167212046983  1.0000
  P   P1        1.0  0.479599355347373  0.7119995935939991  0.5668631005516597  1.0000
  P   P2        1.0  0.0204006443969971  0.2119995936841227  0.9331368996908739  1.0000
  P   P3        1.0  0.5204006448566548  0.28800040622575374  0.4331368998294777  1.0000
  P   P4        1.0  0.9795993558070307  0.7880004061356302  0.06686310069026337  1.0000
  P   P5        1.0  0.5202307214616501  0.40689924445545367  0.8160125292398888  1.0000
  P   P6        1.0  0.9797692786722526  0.90689924436533  0.6839874709426482  1.0000
  P   P7        1.0  0.47976927839809963  0.5931007553642991  0.1839874703629105  1.0000
  P   P8        1.0  0.020230721531775214  0.09310075545442273  0.3160125294384891  1.0000
