data_image0
_chemical_formula_structural       H64C38N14O8P2
_chemical_formula_sum              "H64 C38 N14 O8 P2"
_cell_length_a       10.201636289578381
_cell_length_b       10.331353961040472
_cell_length_c       11.768359453356155
_cell_angle_alpha    110.07945429089281
_cell_angle_beta     90.91185080572399
_cell_angle_gamma    112.83105888826066

_space_group_name_H-M_alt    "P 1"
_space_group_IT_number       1

loop_
  _space_group_symop_operation_xyz
  'x, y, z'

loop_
  _atom_site_type_symbol
  _atom_site_label
  _atom_site_symmetry_multiplicity
  _atom_site_fract_x
  _atom_site_fract_y
  _atom_site_fract_z
  _atom_site_occupancy
  H   H1        1.0  0.5849227776609922  0.14488454600983974  0.9949034519579039  1.0000
  H   H2        1.0  0.4150772232097787  0.8551154544967707  0.005096548553064876  1.0000
  H   H3        1.0  0.7150159191020146  0.33508000885281947  0.04162737688750863  1.0000
  H   H4        1.0  0.28498408059169844  0.6649199912235859  0.9583726227155349  1.0000
  H   H5        1.0  0.4227379194546776  0.4433159091944844  0.14417129201632461  1.0000
  H   H6        1.0  0.5772620802390354  0.5566840908819211  0.8558287075867187  1.0000
  H   H7        1.0  0.31623088453718984  0.26516466037791503  0.15187205261828055  1.0000
  H   H8        1.0  0.6837691151565233  0.7348353396984905  0.8481279469847629  1.0000
  H   H9        1.0  0.8726467327463311  0.4688772754729467  0.43924101693107365  1.0000
  H   H10       1.0  0.12735326694738183  0.5311227246034587  0.5607589826719697  1.0000
  H   H11       1.0  0.9561619242981209  0.41468613356757283  0.3101500866977524  1.0000
  H   H12       1.0  0.04383807559356728  0.5853138669413107  0.6898499138236898  1.0000
  H   H13       1.0  0.5776651022128054  0.08249046041999225  0.27222181267754353  1.0000
  H   H14       1.0  0.4223348970710709  0.9175095386070388  0.7277781869272673  1.0000
  H   H15       1.0  0.640560647531817  0.07803811758831875  0.13122288514911437  1.0000
  H   H16       1.0  0.3594393517520596  0.9219618814387122  0.8687771144556963  1.0000
  H   H17       1.0  0.8393448413596293  0.9276378204886475  0.4958012702492617  1.0000
  H   H18       1.0  0.16065515812222225  0.07236217897086152  0.5041987302739477  1.0000
  H   H19       1.0  0.7010210804682702  0.8287581890532912  0.3644231704362414  1.0000
  H   H20       1.0  0.298978919225443  0.17124181102311414  0.6355768291668019  1.0000
  H   H21       1.0  0.5075332603581446  0.2092320869765283  0.8357067286454657  1.0000
  H   H22       1.0  0.4924667393355684  0.7907679130998772  0.16429327095757773  1.0000
  H   H23       1.0  0.5652451846347015  0.4020648698002356  0.934971494436088  1.0000
  H   H24       1.0  0.4347548158262326  0.5979351296570004  0.06502850607664791  1.0000
  H   H25       1.0  0.9905935865415835  0.266422528196345  0.4177324142339914  1.0000
  H   H26       1.0  0.00940641335010478  0.7335774723125386  0.5822675862874508  1.0000
  H   H27       1.0  0.821854790341787  0.23419687425509275  0.4692651511985529  1.0000
  H   H28       1.0  0.1781452095499011  0.7658031262537908  0.5307348493228893  1.0000
  H   H29       1.0  0.925197138294113  0.8672855417202491  0.27190406052359256  1.0000
  H   H30       1.0  0.07480286159757533  0.13271445878863447  0.7280959399978496  1.0000
  H   H31       1.0  0.0002606743128174072  0.8250077162384272  0.3836983997866864  1.0000
  H   H32       1.0  0.9997393249710591  0.17499228278860382  0.6163015998181244  1.0000
  H   H33       1.0  0.7646796563407242  0.9989476066180467  0.2901096555174947  1.0000
  H   H34       1.0  0.2353203445300466  0.001052393888563759  0.7098903449934739  1.0000
  H   H35       1.0  0.8728618319865841  0.10359415755068932  0.2069127978764484  1.0000
  H   H36       1.0  0.12713816770712888  0.896405842525716  0.7930872017265951  1.0000
  H   H37       1.0  0.30250968827428226  0.2984161095307453  0.9329055682298474  1.0000
  H   H38       1.0  0.6974903110095941  0.7015838894962856  0.06709443137496336  1.0000
  H   H39       1.0  0.30083561021101596  0.1291836106991996  0.9394989481327275  1.0000
  H   H40       1.0  0.6991643890728605  0.8708163883278315  0.06050105147208323  1.0000
  H   H41       1.0  0.9056232728490268  0.577309151539441  0.231999226244201  1.0000
  H   H42       1.0  0.09437672663282479  0.42269084792006806  0.7680007742790084  1.0000
  H   H43       1.0  0.7694239104018707  0.6031626042475536  0.15945955018641453  1.0000
  H   H44       1.0  0.23057608888200565  0.3968373947794773  0.8405404494183962  1.0000
  H   H45       1.0  0.8126659041140026  0.6897541716422361  0.5130325632771009  1.0000
  H   H46       1.0  0.18733409557971054  0.3102458284341694  0.4869674363259426  1.0000
  H   H47       1.0  0.6306189702034841  0.6543111362660468  0.4721919461573831  1.0000
  H   H48       1.0  0.3693810306672866  0.3456888642405637  0.5278080543535856  1.0000
  H   H49       1.0  0.29997902842680557  0.09793419552276122  0.27043069697862787  1.0000
  H   H50       1.0  0.7000209714648826  0.9020658049861223  0.7295693035428144  1.0000
  H   H51       1.0  0.1168209710075737  0.029728650899448646  0.06716892646982021  1.0000
  H   H52       1.0  0.8831790288841145  0.9702713496094348  0.9328310740516219  1.0000
  H   H53       1.0  0.08281446320840907  0.6169997819588133  0.08843082208761568  1.0000
  H   H54       1.0  0.917185537252525  0.3830002174984225  0.9115691784251201  1.0000
  H   H55       1.0  0.20465327455302215  0.4100952364264417  0.2683706609139729  1.0000
  H   H56       1.0  0.795346725907912  0.5899047630307942  0.731629339598763  1.0000
  H   H57       1.0  0.19074488533313977  0.5873615874541954  0.21529194924854442  1.0000
  H   H58       1.0  0.8092551145585483  0.412638413054688  0.7847080512728978  1.0000
  H   H59       1.0  0.3507319429827531  0.45743528687014223  0.37934816971476415  1.0000
  H   H60       1.0  0.6492680576900426  0.5425647132039901  0.6206518298778059  1.0000
  H   H61       1.0  0.4621140687921901  0.7080685687451143  0.5298863752439719  1.0000
  H   H62       1.0  0.5378859314707689  0.2919314302796435  0.47011362435036524  1.0000
  H   H63       1.0  0.4602220977373816  0.8546280446806168  0.48186703144423565  1.0000
  H   H64       1.0  0.5397779021543067  0.14537195582826687  0.5181329690772065  1.0000
  C   C1        1.0  0.5989358731886684  0.26377136236317356  0.02518174838673069  1.0000
  C   C2        1.0  0.4010641267030199  0.7362286381457098  0.9748182521347114  1.0000
  C   C3        1.0  0.40260069673746507  0.32230859630129777  0.10904804360394536  1.0000
  C   C4        1.0  0.5973993039353306  0.6776914037728344  0.8909519559886245  1.0000
  C   C5        1.0  0.8679306858800404  0.3724488210882782  0.3590115065695005  1.0000
  C   C6        1.0  0.13206931340383607  0.6275511779387528  0.6409884930353102  1.0000
  C   C7        1.0  0.6726742111598063  0.1299741139951319  0.23164737832665122  1.0000
  C   C8        1.0  0.32732578832204534  0.8700258854643772  0.7683526221965582  1.0000
  C   C9        1.0  0.7910377402532973  0.8238553270156924  0.4128409337793252  1.0000
  C   C10       1.0  0.2089622590305792  0.1761446720113386  0.5871590658254854  1.0000
  C   C11       1.0  0.5134639049494913  0.28443711448680825  0.9296743429258885  1.0000
  C   C12       1.0  0.4865360953134677  0.7155628845379497  0.07032565666844875  1.0000
  C   C13       1.0  0.8783464742166243  0.245691660072747  0.39217425085566454  1.0000
  C   C14       1.0  0.12165352645617132  0.7543083400013852  0.6078257487369053  1.0000
  C   C15       1.0  0.8986556065164265  0.7979910507522009  0.32807113680432526  1.0000
  C   C16       1.0  0.10134439317728657  0.20200894932420468  0.6719288627987182  1.0000
  C   C17       1.0  0.8002713105728859  0.10523157431330482  0.2748404486014022  1.0000
  C   C18       1.0  0.19972868931880222  0.8947684261955787  0.72515955192004  1.0000
  C   C19       1.0  0.36562171664183923  0.2518906482184304  0.9693772764010004  1.0000
  C   C20       1.0  0.6343782830518739  0.7481093518579751  0.03062272320204327  1.0000
  C   C21       1.0  0.8264257026331127  0.6268972779781725  0.24952225491358  1.0000
  C   C22       1.0  0.17357429706060032  0.37310272209823286  0.7504777446894633  1.0000
  C   C23       1.0  0.734618008201489  0.6805927534650543  0.44112247229558504  1.0000
  C   C24       1.0  0.2653819912803625  0.3194072459944548  0.5588775282276244  1.0000
  C   C25       1.0  0.9602744930502002  0.6878649625172975  0.9282420779663921  1.0000
  C   C26       1.0  0.039725506643512966  0.31213503755910815  0.07175792163665148  1.0000
  C   C27       1.0  0.06622550954504677  0.7914042213779087  0.04252749274535723  1.0000
  C   C28       1.0  0.9337744897388296  0.20859577764912227  0.9574725068594535  1.0000
  C   C29       1.0  0.21395464611530168  0.8477408245021701  0.21228021811635023  1.0000
  C   C30       1.0  0.7860453535784115  0.15225917557423543  0.7877197814866933  1.0000
  C   C31       1.0  0.32685312254464643  0.6400503149895543  0.370602430500057  1.0000
  C   C32       1.0  0.6731468781281492  0.35994968508457814  0.629397569092513  1.0000
  C   C33       1.0  0.22841160955487733  0.9858578444603897  0.20511648819248127  1.0000
  C   C34       1.0  0.7715883907080817  0.01414215456436814  0.794883511401856  1.0000
  C   C35       1.0  0.28952651849119126  0.8287771981116075  0.3072947397903817  1.0000
  C   C36       1.0  0.710473480792685  0.17122280091542333  0.692705259814429  1.0000
  C   C37       1.0  0.13567140482727189  0.9502694198574239  0.09869517794543903  1.0000
  C   C38       1.0  0.8643285958455238  0.04973058021670837  0.9013048216471309  1.0000
  N   N1        1.0  0.7273463963235364  0.29730066423658685  0.27560905835245747  1.0000
  N   N2        1.0  0.27265360296034  0.7026993347904441  0.7243909412523533  1.0000
  N   N3        1.0  0.7226483643407674  0.5629798231379757  0.32252441728722514  1.0000
  N   N4        1.0  0.27735163653000333  0.4370201773686347  0.6774755832237435  1.0000
  N   N5        1.0  0.5346821921841438  0.30444116373754293  0.13641529298637817  1.0000
  N   N6        1.0  0.46531780770754433  0.6955588367713404  0.8635847075350639  1.0000
  N   N7        1.0  0.11429820283338887  0.7323218714545988  0.11269363217856013  1.0000
  N   N8        1.0  0.885701797839407  0.2676781286195336  0.8873063674140099  1.0000
  N   N9        1.0  0.26040764792689075  0.6804528935803571  0.2946038784636374  1.0000
  N   N10       1.0  0.739592352745905  0.3195471064937753  0.7053961211289325  1.0000
  N   N11       1.0  0.2825391190832386  0.49161673169006787  0.3452579978629425  1.0000
  N   N12       1.0  0.7174608817875322  0.5083832688165425  0.6547420026480262  1.0000
  N   N13       1.0  0.4295354770068248  0.7423576867181606  0.4651566966164474  1.0000
  N   N14       1.0  0.570464523863946  0.25764231378844965  0.5348433038945212  1.0000
  O   O1        1.0  0.5066841265149796  0.3627677212963076  0.36443437274401175  1.0000
  O   O2        1.0  0.49331587296687196  0.6372322781632016  0.6355656277791978  1.0000
  O   O3        1.0  0.9234442435401967  0.7413767245720745  0.8581315856183998  1.0000
  O   O4        1.0  0.07655575574367969  0.25862327445495653  0.14186841398641112  1.0000
  O   O5        1.0  0.3769312512084617  0.9412858614129466  0.3949173343699286  1.0000
  O   O6        1.0  0.6230687492524724  0.05871413804428935  0.6050826661428073  1.0000
  O   O7        1.0  0.9120125816003214  0.5451599916203463  0.9076400790924791  1.0000
  O   O8        1.0  0.08798741886061265  0.45484000783688955  0.09235992142025673  1.0000
  P   P1        1.0  0.6174738679918123  0.38061430888199965  0.27999925088348165  1.0000
  P   P2        1.0  0.38252613268098334  0.6193856911921326  0.7200007487090883  1.0000
