data_image0
_chemical_formula_structural       H56C28N4O16Cl12
_chemical_formula_sum              "H56 C28 N4 O16 Cl12"
_cell_length_a       9.063655019464404
_cell_length_b       11.359495267089475
_cell_length_c       11.445928138210444
_cell_angle_alpha    90.0
_cell_angle_beta     91.05225180300178
_cell_angle_gamma    90.0

_space_group_name_H-M_alt    "P 1"
_space_group_IT_number       1

loop_
  _space_group_symop_operation_xyz
  'x, y, z'

loop_
  _atom_site_type_symbol
  _atom_site_label
  _atom_site_symmetry_multiplicity
  _atom_site_fract_x
  _atom_site_fract_y
  _atom_site_fract_z
  _atom_site_occupancy
  H   H1        1.0  0.6304912466950943  0.4396412677303388  0.27475569544322415  1.0000
  H   H2        1.0  0.36950875329468275  0.9396412674182881  0.2252443045874398  1.0000
  H   H3        1.0  0.3695087535822405  0.5603587325258809  0.725244305047105  1.0000
  H   H4        1.0  0.6304912469592822  0.06035873283793142  0.7747556950290723  1.0000
  H   H5        1.0  0.8634851556568399  0.4103724294428444  0.23134907867478108  1.0000
  H   H6        1.0  0.1365148443329372  0.9103724300111146  0.2686509213558828  1.0000
  H   H7        1.0  0.136514844597125  0.5896275699330544  0.7686509209417312  1.0000
  H   H8        1.0  0.8634851548411515  0.08962757024510504  0.7313490791369057  1.0000
  H   H9        1.0  0.6756821021864311  0.44909661037317433  0.027421680621996906  1.0000
  H   H10       1.0  0.32431789780334613  0.9490966100611238  0.472578319408667  1.0000
  H   H11       1.0  0.3243178980675339  0.5509033898830453  0.9725783189945152  1.0000
  H   H12       1.0  0.6756821013707426  0.05090339019509584  0.5274216810841215  1.0000
  H   H13       1.0  0.46507993181096813  0.6160137686991549  0.2791556517008052  1.0000
  H   H14       1.0  0.534920068178809  0.11601376901120546  0.2208443483298587  1.0000
  H   H15       1.0  0.5349200684663667  0.383986230676744  0.720844348789524  1.0000
  H   H16       1.0  0.4650799320751559  0.8839862312450142  0.7791556512866534  1.0000
  H   H17       1.0  0.44826579683300377  0.633885815407795  0.43442344568945007  1.0000
  H   H18       1.0  0.5517342031567735  0.13388581483952483  0.06557655434121393  1.0000
  H   H19       1.0  0.5517342034443311  0.3661141848484246  0.5655765548008792  1.0000
  H   H20       1.0  0.4482657970971916  0.8661141854166948  0.9344234452752983  1.0000
  H   H21       1.0  0.3704057125161444  0.7421209447944039  0.336083025496718  1.0000
  H   H22       1.0  0.6295942874736327  0.24212094510645446  0.163916974533946  1.0000
  H   H23       1.0  0.6295942877611904  0.25787905458149496  0.6639169749936114  1.0000
  H   H24       1.0  0.3704057127803323  0.7578790551497652  0.8360830250825662  1.0000
  H   H25       1.0  0.04394507311124534  0.5748816603603558  0.41917008385266735  1.0000
  H   H26       1.0  0.9560549268785318  0.07488165979208555  0.08082991617799659  1.0000
  H   H27       1.0  0.9560549271660894  0.42511833989586384  0.5808299166376619  1.0000
  H   H28       1.0  0.04394507227218691  0.9251183395838132  0.9191700834409748  1.0000
  H   H29       1.0  0.13228638476420085  0.7159603722502207  0.42401136392794947  1.0000
  H   H30       1.0  0.8677136152255762  0.21596037256227127  0.07598863610271454  1.0000
  H   H31       1.0  0.8677136154897641  0.28403962712567815  0.5759886356885627  1.0000
  H   H32       1.0  0.13228638394851236  0.7840396276939484  0.9240113643900739  1.0000
  H   H33       1.0  0.2593107397708148  0.5707572235875585  0.16122582261933577  1.0000
  H   H34       1.0  0.7406892602189623  0.07075722301928832  0.3387741774113282  1.0000
  H   H35       1.0  0.74068926050652  0.4292427766686611  0.8387741778709934  1.0000
  H   H36       1.0  0.2593107389317564  0.9292427763566106  0.6612258222076434  1.0000
  H   H37       1.0  0.15300239312067546  0.6911306537311982  0.2177103838292438  1.0000
  H   H38       1.0  0.8469976068691016  0.19113065404324878  0.2822896162014202  1.0000
  H   H39       1.0  0.8469976071566595  0.30886934564470064  0.7822896166610854  1.0000
  H   H40       1.0  0.15300239228161702  0.8088693462129709  0.7177103834175514  1.0000
  H   H41       1.0  0.0819503355174796  0.5435412449960015  0.22235760866231008  1.0000
  H   H42       1.0  0.9180496644722974  0.04354124442773133  0.2776423913683539  1.0000
  H   H43       1.0  0.9180496647364853  0.4564587552602181  0.7776423909542021  1.0000
  H   H44       1.0  0.0819503347017911  0.9564587549481675  0.7223576091244346  1.0000
  H   H45       1.0  0.18093429992199525  0.40376484008828395  0.36071377496254337  1.0000
  H   H46       1.0  0.8190657000677819  0.9037648397762333  0.1392862250681206  1.0000
  H   H47       1.0  0.8190656992520933  0.5962351601679358  0.6392862255302452  1.0000
  H   H48       1.0  0.1809343001861831  0.09623515959966547  0.8607137745483917  1.0000
  H   H49       1.0  0.3458879428491034  0.43951866545204615  0.44369327061677544  1.0000
  H   H50       1.0  0.6541120571406737  0.9395186651399956  0.05630672941388856  1.0000
  H   H51       1.0  0.6541120563016153  0.5604813348041735  0.5563067290021961  1.0000
  H   H52       1.0  0.34588794313666116  0.06048133423590329  0.9436932710764406  1.0000
  H   H53       1.0  0.3547394908109709  0.422356652931577  0.28826019023665606  1.0000
  H   H54       1.0  0.6452605091788063  0.9223566534998472  0.21173980979400786  1.0000
  H   H55       1.0  0.6452605083397478  0.5776433464443219  0.7117398093823154  1.0000
  H   H56       1.0  0.3547394910985286  0.07764334675637247  0.7882601906963215  1.0000
  C   C1        1.0  0.742786574530974  0.6079390393345727  0.11224717683411177  1.0000
  C   C2        1.0  0.25721342545880316  0.10793903876630245  0.3877528231965522  1.0000
  C   C3        1.0  0.25721342572299094  0.39206096092164694  0.8877528227824004  1.0000
  C   C4        1.0  0.7427865748185317  0.8920609606095964  0.6122471772937771  1.0000
  C   C5        1.0  0.710769363353584  0.47138110312994275  0.11748321622534473  1.0000
  C   C6        1.0  0.2892306366361932  0.9713811028178921  0.3825167838053192  1.0000
  C   C7        1.0  0.28923063692375095  0.528618897126277  0.8825167842649845  1.0000
  C   C8        1.0  0.7107693636177719  0.028618896558006666  0.617483215811193  1.0000
  C   C9        1.0  0.39578128239424776  0.6487855381525509  0.3492243571870725  1.0000
  C   C10       1.0  0.6042187175721594  0.14878553758428073  0.15077564196977436  1.0000
  C   C11       1.0  0.6042187178597173  0.3512144621036687  0.6507756424294396  1.0000
  C   C12       1.0  0.3957812826818055  0.8512144617916182  0.8492243576467379  1.0000
  C   C13       1.0  0.1482678436636035  0.6207950973341829  0.4371689334164747  1.0000
  C   C14       1.0  0.8517321563261736  0.12079509676591267  0.06283106661418922  1.0000
  C   C15       1.0  0.8517321566137313  0.37920490292203674  0.5628310670738544  1.0000
  C   C16       1.0  0.14826784392779133  0.8792049026099862  0.937168933002323  1.0000
  C   C17       1.0  0.1940945955863886  0.5995598439775603  0.5649337464504839  1.0000
  C   C18       1.0  0.8059054049551341  0.0995598442896109  0.9350662536256935  1.0000
  C   C19       1.0  0.8059054046675763  0.40044015627865936  0.4350662531660283  1.0000
  C   C20       1.0  0.19409459532220077  0.9004401559666088  0.06493374686463567  1.0000
  C   C21       1.0  0.1813606287886384  0.5979537796612296  0.22796155807983048  1.0000
  C   C22       1.0  0.8186393712011387  0.09795377997328018  0.2720384419508335  1.0000
  C   C23       1.0  0.8186393714886965  0.40204622059499  0.7720384424104987  1.0000
  C   C24       1.0  0.1813606290528262  0.9020462202829395  0.7279615576656787  1.0000
  C   C25       1.0  0.2863281221644031  0.4509803560411703  0.360739487001675  1.0000
  C   C26       1.0  0.713671877825374  0.9509803557291198  0.13926051302898895  1.0000
  C   C27       1.0  0.7136718769863156  0.5490196442150493  0.6392605126172964  1.0000
  C   C28       1.0  0.2863281224519608  0.04901964452709991  0.8607394874613402  1.0000
  N   N1        1.0  0.25433952677455407  0.5799313178188334  0.34529123623090774  1.0000
  N   N2        1.0  0.7456604732152231  0.07993131725056321  0.15470876379975623  1.0000
  N   N3        1.0  0.7456604735027809  0.4200686824373862  0.6547087642594216  1.0000
  N   N4        1.0  0.25433952593549564  0.9200686821253357  0.8452912358192153  1.0000
  O   O1        1.0  0.5932074298712235  0.44837568925762744  0.19050372155078113  1.0000
  O   O2        1.0  0.40679257011855363  0.9483756889455769  0.3094962784798828  1.0000
  O   O3        1.0  0.40679257038274147  0.5516243109985922  0.809496278065731  1.0000
  O   O4        1.0  0.5932074301587812  0.05162431043032195  0.6905037220104464  1.0000
  O   O5        1.0  0.8385293208053572  0.4077482996466587  0.1439402695484055  1.0000
  O   O6        1.0  0.16147067916104998  0.9077483002149289  0.35605972960844146  1.0000
  O   O7        1.0  0.1614706794486077  0.5922516997292402  0.8560597300681068  1.0000
  O   O8        1.0  0.838529321092915  0.09225170004129074  0.6439402700080707  1.0000
  O   O9        1.0  0.08680763832955056  0.6025420785930495  0.6349069359614697  1.0000
  O   O10       1.0  0.9131923622119723  0.10254207890510009  0.8650930641147077  1.0000
  O   O11       1.0  0.9131923619244144  0.3974579207828493  0.36509306365504235  1.0000
  O   O12       1.0  0.08680763806536272  0.8974579213511196  0.13490693637562157  1.0000
  O   O13       1.0  0.3286359161646695  0.584188568591243  0.5921234738319959  1.0000
  O   O14       1.0  0.6713640843768531  0.08418856890329363  0.9078765262441814  1.0000
  O   O15       1.0  0.6713640841126655  0.4158114316649766  0.40787652665833324  1.0000
  O   O16       1.0  0.3286359158771117  0.915811431352926  0.09212347337233066  1.0000
  Cl  Cl1       1.0  0.7915545815617719  0.6641422257428347  0.25343485933252097  1.0000
  Cl  Cl2       1.0  0.2084454184280052  0.16414222517456448  0.24656514069814292  1.0000
  Cl  Cl3       1.0  0.20844541869219305  0.33585777451338494  0.7465651402839912  1.0000
  Cl  Cl4       1.0  0.7915545807460834  0.8358577750816552  0.7534348597946456  1.0000
  Cl  Cl5       1.0  0.88730045946732  0.6345368003174349  0.012870178140802258  1.0000
  Cl  Cl6       1.0  0.11269954052245709  0.13453679974916463  0.48712982188986165  1.0000
  Cl  Cl7       1.0  0.11269954081001482  0.36546319993878484  0.987129822349527  1.0000
  Cl  Cl8       1.0  0.8873004586282616  0.865463200507055  0.5128701777291097  1.0000
  Cl  Cl9       1.0  0.57952838822151  0.6808357042417775  0.060311677744557035  1.0000
  Cl  Cl10      1.0  0.42047161176826714  0.18083570455382802  0.4396883222861069  1.0000
  Cl  Cl11      1.0  0.42047161203245503  0.3191642960144422  0.9396883218719552  1.0000
  Cl  Cl12      1.0  0.5795283885090676  0.8191642957023916  0.5603116782042223  1.0000
