data_image0
_chemical_formula_structural       H30C24N2O8Cl4
_chemical_formula_sum              "H30 C24 N2 O8 Cl4"
_cell_length_a       10.028425549741726
_cell_length_b       6.668974120378266
_cell_length_c       10.80532787182091
_cell_angle_alpha    90.0
_cell_angle_beta     111.43919978440796
_cell_angle_gamma    90.0

_space_group_name_H-M_alt    "P 1"
_space_group_IT_number       1

loop_
  _space_group_symop_operation_xyz
  'x, y, z'

loop_
  _atom_site_type_symbol
  _atom_site_label
  _atom_site_symmetry_multiplicity
  _atom_site_fract_x
  _atom_site_fract_y
  _atom_site_fract_z
  _atom_site_occupancy
  H   H1        1.0  0.7020428207214652  0.4299342354978835  0.729069114447262  1.0000
  H   H2        1.0  0.29795717927336174  0.9299342369690043  0.2709308858531796  1.0000
  H   H3        1.0  0.5300108265601399  0.6605671622774463  0.574102057223346  1.0000
  H   H4        1.0  0.4699891740353295  0.16056716230580648  0.4258979420792932  1.0000
  H   H5        1.0  0.5114857666910421  0.6801397708442039  0.33525879472632875  1.0000
  H   H6        1.0  0.4885142333037849  0.180139770872564  0.6647412055741128  1.0000
  H   H7        1.0  0.6669185932039658  0.46061390471039426  0.25935760869715657  1.0000
  H   H8        1.0  0.33308140639573924  0.9606139046820341  0.7406423906090246  1.0000
  H   H9        1.0  0.8392204055520641  0.23307925955961484  0.41228695028550316  1.0000
  H   H10       1.0  0.16077959404764086  0.7330792610307356  0.587713049020678  1.0000
  H   H11       1.0  0.9445282465687096  0.0087154484259272  0.5409165901368966  1.0000
  H   H12       1.0  0.055471753426117314  0.508715448397567  0.45908341016354476  1.0000
  H   H13       1.0  0.07177380822604665  0.005516425665468517  0.7085754704809352  1.0000
  H   H14       1.0  0.9282261917687801  0.5055164256371084  0.29142452981950623  1.0000
  H   H15       1.0  0.057752103166639576  0.22216439339188238  0.606216879851492  1.0000
  H   H16       1.0  0.9422478968281873  0.7221643933635222  0.3937831204489495  1.0000
  H   H17       1.0  0.7552633169343829  0.9301153337881253  0.6178699947531819  1.0000
  H   H18       1.0  0.244736683060444  0.43011533381648537  0.38213000554725957  1.0000
  H   H19       1.0  0.7360398444673896  0.06912786159887681  0.7538193513896371  1.0000
  H   H20       1.0  0.2639601551323155  0.5691278615705166  0.24618064791654393  1.0000
  H   H21       1.0  0.8896648975128567  0.9124834270094361  0.78246632844002  1.0000
  H   H22       1.0  0.1103351024819702  0.4124834270377962  0.2175336718604215  1.0000
  H   H23       1.0  0.05515279818658635  0.1934302258061292  0.8712339678471622  1.0000
  H   H24       1.0  0.9448472028040047  0.693430225777769  0.12876603244973733  1.0000
  H   H25       1.0  0.8931279955481756  0.30937792571355377  0.8624896693850401  1.0000
  H   H26       1.0  0.10687200444665135  0.8093779256851935  0.13751033091540144  1.0000
  H   H27       1.0  0.1250926294805477  0.733590624538592  0.9016009913577628  1.0000
  H   H28       1.0  0.8749073715100436  0.23359062456695223  0.09839900893913682  1.0000
  H   H29       1.0  0.45228477293039987  0.09060092738307533  0.9626698614660085  1.0000
  H   H30       1.0  0.5477152266693052  0.5906009273547151  0.03733013784017252  1.0000
  C   C1        1.0  0.784493771806974  0.32084963014950696  0.5821023551098564  1.0000
  C   C2        1.0  0.2155062281878529  0.8208496301211468  0.4178976451905851  1.0000
  C   C3        1.0  0.6966442874666281  0.43920989752376816  0.6268590416036668  1.0000
  C   C4        1.0  0.30335571213307705  0.9392098974954078  0.3731409577025143  1.0000
  C   C5        1.0  0.5978554090787344  0.5681094245699522  0.5380354505878924  1.0000
  C   C6        1.0  0.40214459052097073  0.06810942459831236  0.4619645487182888  1.0000
  C   C7        1.0  0.5869475633759345  0.5785697830510019  0.4055061026281784  1.0000
  C   C8        1.0  0.41305243661889246  0.07856978307936209  0.5944938976722631  1.0000
  C   C9        1.0  0.6740047423185277  0.45617459373608193  0.362346103139212  1.0000
  C   C10       1.0  0.3259952576762992  0.9561745937077217  0.6376538971612296  1.0000
  C   C11       1.0  0.7731644003220722  0.3257503119350506  0.4499935971748769  1.0000
  C   C12       1.0  0.22683559967275474  0.8257503134061714  0.5500064031255646  1.0000
  C   C13       1.0  0.9993239644456204  0.0987876872976427  0.629277077711326  1.0000
  C   C14       1.0  0.0006760355492065637  0.5987876872692826  0.37072292258911543  1.0000
  C   C15       1.0  0.8111262745105157  0.010282524532590398  0.7107679429052713  1.0000
  C   C16       1.0  0.1888737250891894  0.5102825245042302  0.2892320564009098  1.0000
  C   C17       1.0  0.9678288968216974  0.2921655242365048  0.8105250189381205  1.0000
  C   C18       1.0  0.0321711027780078  0.7921655242081447  0.18947498036806065  1.0000
  C   C19       1.0  0.030726403812186106  0.4932635590754722  0.7935357793895517  1.0000
  C   C20       1.0  0.969273596182641  0.9932635590471119  0.20646422091088984  1.0000
  C   C21       1.0  0.4287749455360694  0.05606955781360728  0.05178523837199178  1.0000
  C   C22       1.0  0.5712250544587575  0.5560695577852471  0.9482147619284496  1.0000
  C   C23       1.0  0.31930921753630026  0.8829039989835837  0.027285911147464526  1.0000
  C   C24       1.0  0.6806907824585267  0.38290399901194405  0.972714089152977  1.0000
  N   N1        1.0  0.8905399205169995  0.18421609498318417  0.6804331865441154  1.0000
  N   N2        1.0  0.10946007947782734  0.6842160949548239  0.31956681375632606  1.0000
  O   O1        1.0  0.05560976171688917  0.6047897213569077  0.8994809708426456  1.0000
  O   O2        1.0  0.9443902378828158  0.10478972138526782  0.10051902846353557  1.0000
  O   O3        1.0  0.05607820654296104  0.5387365365568721  0.693632200732824  1.0000
  O   O4        1.0  0.9439217934518659  0.03873653658523228  0.30636779956761756  1.0000
  O   O5        1.0  0.21356346724204678  0.8972215669147943  0.9154866681544663  1.0000
  O   O6        1.0  0.7864365327527801  0.3972215669431544  0.08451333214597516  1.0000
  O   O7        1.0  0.33802297948024373  0.750982446415001  0.11335547063365035  1.0000
  O   O8        1.0  0.6619770201194615  0.25098244644336115  0.8866445286725309  1.0000
  Cl  Cl1       1.0  0.5938354198818909  0.0018466258494494628  0.18076694533985332  1.0000
  Cl  Cl2       1.0  0.40616458011293605  0.5018466258210893  0.8192330549605882  1.0000
  Cl  Cl3       1.0  0.3487845037606925  0.2763835901488629  0.08972593727215705  1.0000
  Cl  Cl4       1.0  0.6512154962341343  0.7763835901205027  0.9102740630282844  1.0000
