data_image0
_chemical_formula_structural       H48C52N8O16
_chemical_formula_sum              "H48 C52 N8 O16"
_cell_length_a       6.042453395084289
_cell_length_b       9.362382833807267
_cell_length_c       20.31018256902165
_cell_angle_alpha    90.00005965029139
_cell_angle_beta     95.2271479281408
_cell_angle_gamma    89.9998553468886

_space_group_name_H-M_alt    "P 1"
_space_group_IT_number       1

loop_
  _space_group_symop_operation_xyz
  'x, y, z'

loop_
  _atom_site_type_symbol
  _atom_site_label
  _atom_site_symmetry_multiplicity
  _atom_site_fract_x
  _atom_site_fract_y
  _atom_site_fract_z
  _atom_site_occupancy
  H   H1        1.0  0.6038678188055028  0.9768081570506674  0.3463267333352044  1.0000
  H   H2        1.0  0.8961318786366864  0.4768080387778294  0.15367307365961627  1.0000
  H   H3        1.0  0.39613218161287744  0.02319184348672376  0.6536732664393747  1.0000
  H   H4        1.0  0.10386812178169584  0.5231919606914575  0.8463269261149629  1.0000
  H   H5        1.0  0.7531993765248063  0.7864532466921325  0.422773286206695  1.0000
  H   H6        1.0  0.7468006626775291  0.28645324806142264  0.07722631242456005  1.0000
  H   H7        1.0  0.24680062389357396  0.21354675384525865  0.5772267135678841  1.0000
  H   H8        1.0  0.2531993360789852  0.7135467514078656  0.9227736873049949  1.0000
  H   H9        1.0  0.37982596890377707  0.012948748001527035  0.43913163164781305  1.0000
  H   H10       1.0  0.12017302876191989  0.5129492618141064  0.06086875270229629  1.0000
  H   H11       1.0  0.6201740315146052  0.9870512514677602  0.5608683681267661  1.0000
  H   H12       1.0  0.8798269699946586  0.48705073872328664  0.9391312475196244  1.0000
  H   H13       1.0  0.20508045104236144  0.1918357641858864  0.35881431625050486  1.0000
  H   H14       1.0  0.2949191353739832  0.6918367117519848  0.1411859781484026  1.0000
  H   H15       1.0  0.794919549376085  0.8081642363515051  0.64118568401644  1.0000
  H   H16       1.0  0.7050808650444633  0.3081632887854068  0.8588140221185423  1.0000
  H   H17       1.0  0.15889118180800751  0.594425669400728  0.5353665446307555  1.0000
  H   H18       1.0  0.34110989736438796  0.09442508188575653  0.9646333222452318  1.0000
  H   H19       1.0  0.8411088169485068  0.40557433006856025  0.4646334550987993  1.0000
  H   H20       1.0  0.6588901030539923  0.9055749186516345  0.03536667752934743  1.0000
  H   H21       1.0  0.910985620514198  0.6576281766286005  0.492244925761995  1.0000
  H   H22       1.0  0.589014894803685  0.15762733943493917  0.007755114360430815  1.0000
  H   H23       1.0  0.08901437990418441  0.34237182284068646  0.507755074012584  1.0000
  H   H24       1.0  0.4109851056147636  0.8423726600343483  0.9922448859065139  1.0000
  H   H25       1.0  0.9781960842135068  0.5739306141419925  0.6372152333228797  1.0000
  H   H26       1.0  0.5218057876117742  0.07392958404764118  0.8627848700442214  1.0000
  H   H27       1.0  0.021803916204875488  0.4260693853272944  0.3627847664516994  1.0000
  H   H28       1.0  0.47819421114473804  0.9260704164897513  0.13721512968533356  1.0000
  H   H29       1.0  0.2283551763016583  0.4523435859956984  0.72076538114963  1.0000
  H   H30       1.0  0.27164559922151055  0.9523413635906158  0.7792350850571669  1.0000
  H   H31       1.0  0.7716448241167903  0.5476564134735891  0.2792346191173147  1.0000
  H   H32       1.0  0.7283544011969378  0.04765863587867173  0.22076491520977776  1.0000
  H   H33       1.0  0.7171741555553891  0.14193699014639877  0.7488859050768415  1.0000
  H   H34       1.0  0.782831274249764  0.6419382111204465  0.7511120055552004  1.0000
  H   H35       1.0  0.28282584486305945  0.8580630093228887  0.2511140951901032  1.0000
  H   H36       1.0  0.2171687261686824  0.3580617894169452  0.24888799471174436  1.0000
  H   H37       1.0  0.46104042009129587  0.2705816702875862  0.6656375469587053  1.0000
  H   H38       1.0  0.038964162730550075  0.7705808031856898  0.8343599580778435  1.0000
  H   H39       1.0  0.5389595786652845  0.7294183291817026  0.3343624532632151  1.0000
  H   H40       1.0  0.9610358376878302  0.22941919735170133  0.16564004169673574  1.0000
  H   H41       1.0  0.5241774006671526  0.6827043343467278  0.5419546180322979  1.0000
  H   H42       1.0  0.9758234755004417  0.18270347497573186  0.9580451403617868  1.0000
  H   H43       1.0  0.47582259975122965  0.31729566512255913  0.4580453817422812  1.0000
  H   H44       1.0  0.024176523256138855  0.8172965244935569  0.041954859860133704  1.0000
  H   H45       1.0  0.2445852484079645  0.2866282910949794  0.8073272978688923  1.0000
  H   H46       1.0  0.2554156116988627  0.7866272579757397  0.6926728953100992  1.0000
  H   H47       1.0  0.7554147503485498  0.7133717083743089  0.19267270186066238  1.0000
  H   H48       1.0  0.7445843887195838  0.2133727425616519  0.3073271049568456  1.0000
  C   C1        1.0  0.776188313681766  0.9803406659375128  0.36767331938186365  1.0000
  C   C2        1.0  0.7238117343938684  0.48034100789685846  0.1323262516271352  1.0000
  C   C3        1.0  0.2238116850748145  0.019659333531776162  0.6323266808400568  1.0000
  C   C4        1.0  0.2761882643626459  0.5196589915724297  0.8676737481024196  1.0000
  C   C5        1.0  0.8608249284417382  0.8742128212336568  0.41085683189556693  1.0000
  C   C6        1.0  0.6391750550291821  0.37421294347220224  0.08914295322402893  1.0000
  C   C7        1.0  0.13917507197664208  0.12578717930373415  0.5891431678790123  1.0000
  C   C8        1.0  0.3608249453891981  0.6257870570651888  0.9108570465505503  1.0000
  C   C9        1.0  0.08237057622906956  0.8845436946948277  0.43691249446465935  1.0000
  C   C10       1.0  0.4176291065260471  0.38454407071050317  0.06308729603478644  1.0000
  C   C11       1.0  0.9176294241893769  0.11545630584256403  0.5630875058022856  1.0000
  C   C12       1.0  0.5823708938923995  0.6154559298268885  0.9369127042321586  1.0000
  C   C13       1.0  0.2085650515195906  0.0005449514185199275  0.4183966326445653  1.0000
  C   C14       1.0  0.29143413732824386  0.5005455607624444  0.08160348264371076  1.0000
  C   C15       1.0  0.7914349488987917  0.9994550480507672  0.5816033671300137  1.0000
  C   C16       1.0  0.7085658630901364  0.4994544397749468  0.9183965171308686  1.0000
  C   C17       1.0  0.11080732211607026  0.10047039970659828  0.374202498320002  1.0000
  C   C18       1.0  0.3891920311280515  0.6004709093509534  0.12579759020002473  1.0000
  C   C19       1.0  0.88919267830231  0.8995296008307927  0.6257975014545771  1.0000
  C   C20       1.0  0.6108079692903308  0.3995290901183336  0.8742024095745542  1.0000
  C   C21       1.0  0.19414407527456068  0.7769002446821361  0.4830835437728325  1.0000
  C   C22       1.0  0.30585602552732727  0.2768999336011887  0.016916444142588968  1.0000
  C   C23       1.0  0.8058559234819516  0.2230997558552562  0.5169164559567225  1.0000
  C   C24       1.0  0.6941439748910531  0.7231000669362023  0.9830835556319902  1.0000
  C   C25       1.0  0.7012038563187213  0.43056571809521577  0.6452137174948814  1.0000
  C   C26       1.0  0.7988004070332936  0.9305642404234036  0.8547855012498038  1.0000
  C   C27       1.0  0.2987961440997272  0.5694342813740716  0.35478628277206337  1.0000
  C   C28       1.0  0.20119959172321863  0.06943576011398878  0.14521449847975118  1.0000
  C   C29       1.0  0.9189107157747741  0.48005903283484336  0.6617991512274716  1.0000
  C   C30       1.0  0.5810926785180893  0.9800583796752316  0.8382004801279432  1.0000
  C   C31       1.0  0.08108928298180434  0.5199409677025497  0.33820084899444913  1.0000
  C   C32       1.0  0.41890732190029295  0.019941619794055218  0.16179951964663572  1.0000
  C   C33       1.0  0.06074435397689169  0.4114268695620133  0.7091074267894053  1.0000
  C   C34       1.0  0.43925782169112443  0.9114263045438072  0.7908923734925998  1.0000
  C   C35       1.0  0.9392556464414907  0.5885731299072736  0.2908925729851737  1.0000
  C   C36       1.0  0.5607421787273241  0.08857369492548005  0.2091076267743449  1.0000
  C   C37       1.0  0.9879316216511055  0.28907245224374223  0.741342767474564  1.0000
  C   C38       1.0  0.5120699696633508  0.7890714559275603  0.7586567394032797  1.0000
  C   C39       1.0  0.01206837876734087  0.7109275482936495  0.258657232792381  1.0000
  C   C40       1.0  0.48793002909322963  0.21092854354172863  0.2413432608186408  1.0000
  C   C41       1.0  0.7717290935457534  0.2369234236740504  0.7240077916060496  1.0000
  C   C42       1.0  0.7282733584437447  0.7369235071836752  0.775990669467635  1.0000
  C   C43       1.0  0.22827090687269522  0.7630765757952371  0.27599220866089513  1.0000
  C   C44       1.0  0.2717266419747038  0.2630764922856123  0.22400933079930976  1.0000
  C   C45       1.0  0.6306066813856079  0.30793021975688484  0.6772882464365316  1.0000
  C   C46       1.0  0.8693973565483548  0.80793023197326  0.82270979558724  1.0000
  C   C47       1.0  0.36939331903277434  0.692069779712402  0.3227117533380474  1.0000
  C   C48       1.0  0.13060264220822362  0.19206976856413305  0.1772902046346807  1.0000
  C   C49       1.0  0.5481427714291055  0.5068652621237612  0.5966718438586643  1.0000
  C   C50       1.0  0.951861153928397  0.00686475336401035  0.9033276544778767  1.0000
  C   C51       1.0  0.45185722898934294  0.49313473734552626  0.4033281564082803  1.0000
  C   C52       1.0  0.04813884648998322  0.9931352471733809  0.09667234529670271  1.0000
  N   N1        1.0  0.8975820816064926  0.0911392971705874  0.3492932379078519  1.0000
  N   N2        1.0  0.6024174987676019  0.5911396698567287  0.15070663396752487  1.0000
  N   N3        1.0  0.10241791715001963  0.908860703366805  0.6507067618217031  1.0000
  N   N4        1.0  0.39758249998897666  0.4088603306806642  0.8492933662543958  1.0000
  N   N5        1.0  0.07584933580164413  0.6702969901917425  0.5055222038297886  1.0000
  N   N6        1.0  0.42415125538918735  0.1702963671412956  0.9944778927266946  1.0000
  N   N7        1.0  0.9241506646167361  0.32970301034564853  0.4944777959447905  1.0000
  N   N8        1.0  0.5758487450292611  0.8297036323279919  0.0055221075402500305  1.0000
  O   O1        1.0  0.39946119480076697  0.7914264060009129  0.49944914047597594  1.0000
  O   O2        1.0  0.10053870515360674  0.29142581756094643  0.0005509375366312327  1.0000
  O   O3        1.0  0.6005388056176133  0.20857359453647828  0.5005508592986033  1.0000
  O   O4        1.0  0.8994612952647756  0.7085741819083405  0.9994490622379477  1.0000
  O   O5        1.0  0.3537177995098311  0.4676285338974957  0.5799730780544966  1.0000
  O   O6        1.0  0.14628623543820157  0.9676293942822118  0.9200260745881175  1.0000
  O   O7        1.0  0.6462821992466831  0.5323714655717925  0.4200269216750582  1.0000
  O   O8        1.0  0.8537137649802449  0.032370606255179596  0.07997392567882745  1.0000
  O   O9        1.0  0.6376697962177005  0.6228636213905572  0.5719957400276815  1.0000
  O   O10       1.0  0.8623315375951583  0.12286268057471231  0.9280039579732837  1.0000
  O   O11       1.0  0.36233020420067974  0.3771363791468339  0.42800425974689776  1.0000
  O   O12       1.0  0.13766846282322195  0.8771373199626786  0.07199604180129567  1.0000
  O   O13       1.0  0.11828201166562287  0.2203437333003246  0.7886903144494425  1.0000
  O   O14       1.0  0.3817197191104232  0.7203429364533794  0.7113092302070084  1.0000
  O   O15       1.0  0.8817179870908913  0.7796562661689637  0.2113096852801122  1.0000
  O   O16       1.0  0.6182802796461573  0.2796570630159093  0.28869077001491206  1.0000
