data_image0
_chemical_formula_structural       H36C36N8O8
_chemical_formula_sum              "H36 C36 N8 O8"
_cell_length_a       14.164683772436534
_cell_length_b       5.378444564954588
_cell_length_c       11.716076209168623
_cell_angle_alpha    90.0
_cell_angle_beta     112.399192647314
_cell_angle_gamma    90.0

_space_group_name_H-M_alt    "P 1"
_space_group_IT_number       1

loop_
  _space_group_symop_operation_xyz
  'x, y, z'

loop_
  _atom_site_type_symbol
  _atom_site_label
  _atom_site_symmetry_multiplicity
  _atom_site_fract_x
  _atom_site_fract_y
  _atom_site_fract_z
  _atom_site_occupancy
  H   H1        1.0  0.703252554517578  0.42337787486691825  0.8533752595534343  1.0000
  H   H2        1.0  0.7032525545134618  0.07662212653175865  0.3533752593967117  1.0000
  H   H3        1.0  0.29674744508569084  0.5766221260711619  0.14662474033139822  1.0000
  H   H4        1.0  0.296747445089807  0.9233778744063216  0.6466247404881208  1.0000
  H   H5        1.0  0.9717857976131064  0.6208837517372824  0.7818121505937671  1.0000
  H   H6        1.0  0.9717857976089902  0.8791162468809276  0.2818121504370445  1.0000
  H   H7        1.0  0.02821420275374315  0.37911624734152416  0.21818784963797316  1.0000
  H   H8        1.0  0.02821420275785931  0.12088375219787909  0.7181878497946956  1.0000
  H   H9        1.0  0.6113596039731836  0.7583964603034709  0.7091338377738493  1.0000
  H   H10       1.0  0.6113596039690674  0.7416035401740126  0.20913383761712664  1.0000
  H   H11       1.0  0.38864039639366593  0.24160353877533583  0.29086616245789104  1.0000
  H   H12       1.0  0.3886403963977821  0.25839646076406747  0.7908661626146136  1.0000
  H   H13       1.0  0.8008168281476208  0.18251523059219044  0.9786228436960406  1.0000
  H   H14       1.0  0.8008168281435045  0.31748476894721284  0.478622843539318  1.0000
  H   H15       1.0  0.1991831714556479  0.8174847684866161  0.021377156188791848  1.0000
  H   H16       1.0  0.19918317145976408  0.6825152319908674  0.5213771563455143  1.0000
  H   H17       1.0  0.8691896903834101  0.9581520154690879  0.6451313761742815  1.0000
  H   H18       1.0  0.8691896903792937  0.5418479850083955  0.1451313760175589  1.0000
  H   H19       1.0  0.13081030998343948  0.04184798546899226  0.35486862405745867  1.0000
  H   H20       1.0  0.13081030998755566  0.4581520159296846  0.8548686242141812  1.0000
  H   H21       1.0  0.9151443394186187  0.003137001747668372  0.02421720548313349  1.0000
  H   H22       1.0  0.9151443394227349  0.49686299779173493  0.524217205639856  1.0000
  H   H23       1.0  0.08485566094823094  0.9968629991904119  0.9757827947486067  1.0000
  H   H24       1.0  0.08485566094411474  0.5031370012870716  0.47578279459188416  1.0000
  H   H25       1.0  0.5444642693316689  0.11457304292308962  0.6258573608631545  1.0000
  H   H26       1.0  0.5444642693275528  0.38542695661631365  0.12585736070643197  1.0000
  H   H27       1.0  0.45553573103518064  0.8854269561557169  0.3741426393685857  1.0000
  H   H28       1.0  0.4555357310392968  0.6145730424624929  0.8741426395253081  1.0000
  H   H29       1.0  0.607928059476533  0.6407243410956485  0.3883662630067793  1.0000
  H   H30       1.0  0.6079280594762911  0.8592756575225614  0.88836626230798  1.0000
  H   H31       1.0  0.39207194089031655  0.3592756579831581  0.611633737224961  1.0000
  H   H32       1.0  0.3920719408862004  0.1407243415562452  0.1116337370682384  1.0000
  H   H33       1.0  0.6889173927033057  0.09159386771594615  0.5767180599967437  1.0000
  H   H34       1.0  0.6889173926991894  0.4084061336827307  0.07671805984002117  1.0000
  H   H35       1.0  0.31108260766354384  0.9084061332221341  0.4232819402349965  1.0000
  H   H36       1.0  0.31108260766766  0.5915938672553495  0.9232819403917191  1.0000
  C   C1        1.0  0.8356473964312146  0.8369059763727444  0.6940385397415778  1.0000
  C   C2        1.0  0.8356473964270985  0.663094024104739  0.19403853958485529  1.0000
  C   C3        1.0  0.16435260393563483  0.16309402270606213  0.3059614604901624  1.0000
  C   C4        1.0  0.16435260393975099  0.33690597683334117  0.8059614606468849  1.0000
  C   C5        1.0  0.8928496719584815  0.649104935049094  0.7703707238777978  1.0000
  C   C6        1.0  0.8928496719543654  0.850895063569116  0.2703707237210752  1.0000
  C   C7        1.0  0.10715032764478716  0.3508950640297126  0.2296292760070346  1.0000
  C   C8        1.0  0.10715032764890335  0.14910493550969067  0.7296292761637571  1.0000
  C   C9        1.0  0.846994836870289  0.4953689691923962  0.8306012931712258  1.0000
  C   C10       1.0  0.8469948368661727  0.004631030347007082  0.33060129301450336  1.0000
  C   C11       1.0  0.15300516349656057  0.504631031745684  0.16939870706051433  1.0000
  C   C12       1.0  0.15300516350067672  0.9953689687317996  0.6693987072172369  1.0000
  C   C13       1.0  0.7443085117988163  0.5366540818896347  0.8102922216938062  1.0000
  C   C14       1.0  0.7443085117947001  0.9633459185878488  0.3102922215370835  1.0000
  C   C15       1.0  0.25569148856803314  0.46334591718917184  0.1897077785379341  1.0000
  C   C16       1.0  0.25569148857214935  0.03665408235023141  0.6897077786946566  1.0000
  C   C17       1.0  0.6925129387995036  0.727493882803092  0.7308427743916548  1.0000
  C   C18       1.0  0.6925129387953876  0.7725061176743915  0.23084277423493224  1.0000
  C   C19       1.0  0.3074870615673458  0.27250611813498815  0.2691572258400854  1.0000
  C   C20       1.0  0.307487061571462  0.22749388326368872  0.7691572259968079  1.0000
  C   C21       1.0  0.9102503819466142  0.2888290864095048  0.9092872312800679  1.0000
  C   C22       1.0  0.9102503819424981  0.2111709149891721  0.4092872311233455  1.0000
  C   C23       1.0  0.08974961842023528  0.7111709145285754  0.09071276895167217  1.0000
  C   C24       1.0  0.08974961841999343  0.7888290859489081  0.5907127682528728  1.0000
  C   C25       1.0  0.5863998387719905  0.3603726461418619  0.5065528156805508  1.0000
  C   C26       1.0  0.5863998387678745  0.1396273533975414  0.006552815523828353  1.0000
  C   C27       1.0  0.41360016159485896  0.6396273529369447  0.4934471845511894  1.0000
  C   C28       1.0  0.41360016159897506  0.8603726475405388  0.9934471847079119  1.0000
  C   C29       1.0  0.5256380505110902  0.28389492195368426  0.5708351066283827  1.0000
  C   C30       1.0  0.525638050506974  0.21610507758571904  0.07083510647166015  1.0000
  C   C31       1.0  0.47436194909217855  0.7161050771251223  0.42916489325644974  1.0000
  C   C32       1.0  0.47436194909629475  0.7838949214930875  0.9291648934131723  1.0000
  C   C33       1.0  0.559377493273382  0.5774786209079809  0.43558770956908016  1.0000
  C   C34       1.0  0.5593774932774982  0.922521377710229  0.9355877097258027  1.0000
  C   C35       1.0  0.44062250632988675  0.4225213781708258  0.5644122903157524  1.0000
  C   C36       1.0  0.44062250632577055  0.0774786213685775  0.06441229015902972  1.0000
  N   N1        1.0  0.7371207110411135  0.876497833726358  0.6744492898157897  1.0000
  N   N2        1.0  0.7371207110369975  0.623502164891852  0.17444928965906714  1.0000
  N   N3        1.0  0.2628792893257358  0.1235021653524486  0.3255507104159505  1.0000
  N   N4        1.0  0.26287928932985194  0.3764978341869547  0.825550710572673  1.0000
  N   N5        1.0  0.8714034168765561  0.15209473112918603  0.9766648421103288  1.0000
  N   N6        1.0  0.8714034168767979  0.3479052684102173  0.4766648428091281  1.0000
  N   N7        1.0  0.12859658272671265  0.8479052679496205  0.02333515777450368  1.0000
  N   N8        1.0  0.12859658272647082  0.652094732527863  0.5233351570757043  1.0000
  O   O1        1.0  0.9970881902563206  0.2493500144518685  0.9079385508356966  1.0000
  O   O2        1.0  0.9970881902522043  0.25064998508753483  0.4079385506789742  1.0000
  O   O3        1.0  0.0029118101105290524  0.7506499846269381  0.09206144939604355  1.0000
  O   O4        1.0  0.0029118101146452173  0.7493500158505454  0.5920614495527661  1.0000
  O   O5        1.0  0.671535111400525  0.2340749067496673  0.5120393452526427  1.0000
  O   O6        1.0  0.6715351113964088  0.26592509278973603  0.012039345095920221  1.0000
  O   O7        1.0  0.3284648889663246  0.7659250923291392  0.4879606549790974  1.0000
  O   O8        1.0  0.32846488897044074  0.7340749062890706  0.9879606551358199  1.0000
