data_image0
_chemical_formula_structural       H48C80N8F20I4
_chemical_formula_sum              "H48 C80 N8 F20 I4"
_cell_length_a       16.651494314787314
_cell_length_b       7.491202709831126
_cell_length_c       14.773402835488143
_cell_angle_alpha    90.0
_cell_angle_beta     107.9369563523534
_cell_angle_gamma    90.0

_space_group_name_H-M_alt    "P 1"
_space_group_IT_number       1

loop_
  _space_group_symop_operation_xyz
  'x, y, z'

loop_
  _atom_site_type_symbol
  _atom_site_label
  _atom_site_symmetry_multiplicity
  _atom_site_fract_x
  _atom_site_fract_y
  _atom_site_fract_z
  _atom_site_occupancy
  H   H1        1.0  0.46165316245663496  0.5717849170439228  0.2838453139222053  1.0000
  H   H2        1.0  0.5383468373037548  0.07178491770010087  0.21615468582560263  1.0000
  H   H3        1.0  0.5383468375365978  0.4282150829786202  0.7161546858333695  1.0000
  H   H4        1.0  0.461653162689478  0.9282150823224422  0.7838453139299721  1.0000
  H   H5        1.0  0.42797589509008616  0.7322869988287454  0.41585309561140665  1.0000
  H   H6        1.0  0.5720241054649913  0.23228699948492346  0.0841469048483255  1.0000
  H   H7        1.0  0.5720241050971643  0.2677130011937976  0.5841469048556405  1.0000
  H   H8        1.0  0.4279758947222591  0.7677130005376196  0.9158530956187215  1.0000
  H   H9        1.0  0.5566925898497946  0.7421754243418858  0.6558810965207762  1.0000
  H   H10       1.0  0.4433074099696287  0.24217542366316466  0.8441189039535859  1.0000
  H   H11       1.0  0.4433074097367857  0.2578245756806573  0.3441189039458191  1.0000
  H   H12       1.0  0.5566925902176217  0.7578245763593784  0.15588109651346124  1.0000
  H   H13       1.0  0.4720856819844345  0.8557213745647673  0.5711469235642278  1.0000
  H   H14       1.0  0.5279143182416411  0.3557213752209453  0.9288530761991137  1.0000
  H   H15       1.0  0.5279143180087982  0.14427862545777578  0.42885307619134694  1.0000
  H   H16       1.0  0.4720856817515915  0.6442786248015978  0.07114692355646098  1.0000
  H   H17       1.0  0.5773883229018394  0.9388717222629465  0.602262189117499  1.0000
  H   H18       1.0  0.42261167672356625  0.43887172291912446  0.8977378106453906  1.0000
  H   H19       1.0  0.4226116770913933  0.06112827775959663  0.39773781063807573  1.0000
  H   H20       1.0  0.5773883232696664  0.5611282771034186  0.10226218911018402  1.0000
  H   H21       1.0  0.8607984863508866  0.2961389039824835  0.35171089069087114  1.0000
  H   H22       1.0  0.13920151360352073  0.7961389033263055  0.14828910976840923  1.0000
  H   H23       1.0  0.13920151383636378  0.7038610960400595  0.648289109776176  1.0000
  H   H24       1.0  0.8607984865837297  0.2038610966962376  0.8517108906986379  1.0000
  H   H25       1.0  0.5659157512349026  0.4196383573861221  0.22477590980644718  1.0000
  H   H26       1.0  0.4340842487195048  0.919638356729944  0.27522409065283315  1.0000
  H   H27       1.0  0.4340842489523478  0.580361642636421  0.7752240906605999  1.0000
  H   H28       1.0  0.5659157514677456  0.08036164329259902  0.724775909814214  1.0000
  H   H29       1.0  0.7136711213432589  0.32147691275788337  0.2478481760517785  1.0000
  H   H30       1.0  0.2863288786111485  0.8214769121017053  0.25215182440750183  1.0000
  H   H31       1.0  0.2863288788439915  0.6785230872646597  0.7521518244152685  1.0000
  H   H32       1.0  0.7136711209754318  0.17852308792083774  0.7478481760590935  1.0000
  H   H33       1.0  0.9672308187213299  0.341603797030035  0.511657800529903  1.0000
  H   H34       1.0  0.03276918150474576  0.8416037977087562  0.9883421992334386  1.0000
  H   H35       1.0  0.03276918127190274  0.658396202992508  0.4883421992256718  1.0000
  H   H36       1.0  0.9672308184884869  0.15839620231378695  0.01165780052213617  1.0000
  H   H37       1.0  0.9240973252985965  0.6100942715115807  0.7033236086998752  1.0000
  H   H38       1.0  0.07590267492747935  0.11009427216775877  0.7966763910634663  1.0000
  H   H39       1.0  0.07590267469463631  0.3899057285109623  0.29667639105569954  1.0000
  H   H40       1.0  0.9240973250657533  0.8899057278547843  0.20332360869210833  1.0000
  H   H41       1.0  0.004036621427079214  0.49969292849163677  0.6656990716629198  1.0000
  H   H42       1.0  0.9959633783923441  0.9996929278354587  0.8343009288114424  1.0000
  H   H43       1.0  0.9959633787601713  0.5003070715309063  0.3343009288041275  1.0000
  H   H44       1.0  0.004036621794906213  0.00030707218708434295  0.16569907165560474  1.0000
  H   H45       1.0  0.9358388097001012  0.3756219206706573  0.7128244470347586  1.0000
  H   H46       1.0  0.0641611907199921  0.8756219213493783  0.7871755534400554  1.0000
  H   H47       1.0  0.06416119048714904  0.6243780793518858  0.2871755534322886  1.0000
  H   H48       1.0  0.9358388094672583  0.12437807867316467  0.21282444702699171  1.0000
  C   C1        1.0  0.7751153227236275  0.579252026420978  0.8826670864109653  1.0000
  C   C2        1.0  0.22488467769646592  0.07925202574225676  0.6173329140638488  1.0000
  C   C3        1.0  0.22488467746362287  0.42074797360156524  0.11733291405608198  1.0000
  C   C4        1.0  0.7751153224907845  0.9207479742802863  0.38266708640319835  1.0000
  C   C5        1.0  0.7212341728500945  0.513268261310563  0.9305865343863636  1.0000
  C   C6        1.0  0.27876582677531114  0.013268260631841942  0.5694134653765262  1.0000
  C   C7        1.0  0.27876582714313813  0.48673173871198  0.06941346536921117  1.0000
  C   C8        1.0  0.7212341726172514  0.9867317393907011  0.4305865343785968  1.0000
  C   C9        1.0  0.7490452361880899  0.4786764073670136  0.027939571585080706  1.0000
  C   C10       1.0  0.2509547637663173  0.9786764067108356  0.47206042887419963  1.0000
  C   C11       1.0  0.25095476399916034  0.5213235926555294  0.9720604288819664  1.0000
  C   C12       1.0  0.749045236420933  0.021323593311707488  0.5279395715928475  1.0000
  C   C13       1.0  0.8873674129732644  0.5831081829179966  0.03439757475988304  1.0000
  C   C14       1.0  0.11263258678712519  0.08310818223927555  0.4656024249879249  1.0000
  C   C15       1.0  0.11263258701996824  0.41689181710454637  0.9656024249956917  1.0000
  C   C16       1.0  0.8873674126054374  0.9168918177832676  0.5343975747671981  1.0000
  C   C17       1.0  0.8582973095538046  0.6144243025168065  0.9367323125713694  1.0000
  C   C18       1.0  0.14170269026561866  0.11442430317298453  0.5632676879029928  1.0000
  C   C19       1.0  0.14170269063344568  0.38557569750573656  0.06326768789567777  1.0000
  C   C20       1.0  0.8582973099216317  0.8855756968495585  0.4367323125640544  1.0000
  C   C21       1.0  0.8325444404106886  0.5138959322176431  0.08030744151479391  1.0000
  C   C22       1.0  0.16745555934970102  0.013895931538921961  0.419692558233014  1.0000
  C   C23       1.0  0.16745555958254407  0.4861040678049  0.9196925582407808  1.0000
  C   C24       1.0  0.8325444406435316  0.9861040684836211  0.5803074415225608  1.0000
  C   C25       1.0  0.6541937015535138  0.5649138414645036  0.45561072540833275  1.0000
  C   C26       1.0  0.34580629820687586  0.06491384212068162  0.04438927433947526  1.0000
  C   C27       1.0  0.3458062984397189  0.43508615855803945  0.544389274347242  1.0000
  C   C28       1.0  0.6541937017863567  0.9350861579018614  0.9556107254160995  1.0000
  C   C29       1.0  0.7399960780484751  0.5021055317410831  0.4704384528549286  1.0000
  C   C30       1.0  0.26000392190593213  0.0021055323972611565  0.02956154760435177  1.0000
  C   C31       1.0  0.2600039221387752  0.49789446828145995  0.5295615476121185  1.0000
  C   C32       1.0  0.7399960782813183  0.9978944676252819  0.9704384528626954  1.0000
  C   C33       1.0  0.5930668806601609  0.5339338361183084  0.3653207808881913  1.0000
  C   C34       1.0  0.4069331198949165  0.03393383543958732  0.13467921957154086  1.0000
  C   C35       1.0  0.40693311952708944  0.46606616390423466  0.6346792195788558  1.0000
  C   C36       1.0  0.5930668802923339  0.9660661645829558  0.8653207808955062  1.0000
  C   C37       1.0  0.5561091582755747  0.7134260407859767  0.5109705864390767  1.0000
  C   C38       1.0  0.44389084134983087  0.2134260414421548  0.989029413323813  1.0000
  C   C39       1.0  0.4438908411169879  0.2865739592365663  0.4890294133160462  1.0000
  C   C40       1.0  0.5561091586434018  0.7865739585803883  0.010970586431761718  1.0000
  C   C41       1.0  0.7597356361303548  0.41750662892828144  0.3933517667716004  1.0000
  C   C42       1.0  0.2402643642307048  0.9175066296070026  0.10664823297665936  1.0000
  C   C43       1.0  0.24026436386287786  0.5824933697593625  0.6066482329839743  1.0000
  C   C44       1.0  0.7597356357625278  0.08249337041554053  0.8933517667789154  1.0000
  C   C45       1.0  0.5101909268891012  0.5958464845894716  0.35159559364769505  1.0000
  C   C46       1.0  0.4898090730653062  0.0958464852456497  0.1484044068115853  1.0000
  C   C47       1.0  0.4898090732981492  0.40415351543307143  0.6484044068193521  1.0000
  C   C48       1.0  0.5101909271219441  0.9041535147768933  0.8515955936554619  1.0000
  C   C49       1.0  0.49163052749893954  0.685042821397058  0.42404995669797824  1.0000
  C   C50       1.0  0.5083694728621201  0.18504282205323597  0.07595004305028152  1.0000
  C   C51       1.0  0.5083694724942931  0.31495717862548517  0.5759500430575965  1.0000
  C   C52       1.0  0.49163052713111244  0.8149571779693071  0.9240499567052932  1.0000
  C   C53       1.0  0.5385462490115759  0.8177536327992515  0.5889799731062543  1.0000
  C   C54       1.0  0.46145375061382976  0.31775363345542956  0.9110200266566353  1.0000
  C   C55       1.0  0.4614537503809867  0.18224636722329154  0.4110200266488685  1.0000
  C   C56       1.0  0.5385462495734206  0.6822463665671135  0.08897997381041181  1.0000
  C   C57       1.0  0.8438063589265082  0.36089759878636984  0.40937762958385326  1.0000
  C   C58       1.0  0.1561936410278991  0.8608975994650909  0.09062237087542713  1.0000
  C   C59       1.0  0.1561936412607422  0.6391024012361732  0.590622370883194  1.0000
  C   C60       1.0  0.8438063585586812  0.13910240055745213  0.9093776295911682  1.0000
  C   C61       1.0  0.6153683748156783  0.44316855898761814  0.2916214651143971  1.0000
  C   C62       1.0  0.38463162513872906  0.9431685583314401  0.20837853534488318  1.0000
  C   C63       1.0  0.38463162537157214  0.5568314410349249  0.7083785353526499  1.0000
  C   C64       1.0  0.6153683750485213  0.05683144035620381  0.7916214651221639  1.0000
  C   C65       1.0  0.6961639493457813  0.38908308490636295  0.3043444779721892  1.0000
  C   C66       1.0  0.3038360510152784  0.889083084250185  0.19565552177607057  1.0000
  C   C67       1.0  0.30383605064745134  0.6109169151161802  0.6956555217833855  1.0000
  C   C68       1.0  0.6961639489779543  0.11091691577235814  0.804344477979504  1.0000
  C   C69       1.0  0.87714898335783  0.4688968909345112  0.5704452827929931  1.0000
  C   C70       1.0  0.12285101626757564  0.9688968916132323  0.9295547169698966  1.0000
  C   C71       1.0  0.12285101663540264  0.5311031090880318  0.4295547169625816  1.0000
  C   C72       1.0  0.877148983725657  0.031103108409310756  0.0704452827856782  1.0000
  C   C73       1.0  0.902346687600171  0.3858839951302247  0.4973557692785678  1.0000
  C   C74       1.0  0.09765331276088872  0.8858839958089458  0.002644230469692023  1.0000
  C   C75       1.0  0.09765331239306174  0.6141160048923183  0.502644230477007  1.0000
  C   C76       1.0  0.902346687232344  0.11411600421359727  0.9973557692858828  1.0000
  C   C77       1.0  0.9389801312178587  0.4914249170121562  0.6680948513192155  1.0000
  C   C78       1.0  0.06101986840754695  0.9914249163559781  0.8319051484436742  1.0000
  C   C79       1.0  0.061019868775373964  0.5085750830103869  0.33190514843635927  1.0000
  C   C80       1.0  0.9389801315856857  0.008575083666564953  0.16809485131190052  1.0000
  N   N1        1.0  0.634695605523345  0.6529269490439757  0.5262917375957088  1.0000
  N   N2        1.0  0.36530439429607836  0.15292694836525464  0.9737082628786532  1.0000
  N   N3        1.0  0.36530439406323534  0.3470730509785674  0.4737082628708865  1.0000
  N   N4        1.0  0.634695605891172  0.8470730516572884  0.026291737588393878  1.0000
  N   N5        1.0  0.7984367174389965  0.5263117289331609  0.5563182958100574  1.0000
  N   N6        1.0  0.2015632821864092  0.026311729589338983  0.9436817039528322  1.0000
  N   N7        1.0  0.20156328255423622  0.4736882710893821  0.44368170394551726  1.0000
  N   N8        1.0  0.7984367178068235  0.9736882704332042  0.056318295802742495  1.0000
  F   F1        1.0  0.6390914809821183  0.47997430309572486  0.8827334902427791  1.0000
  F   F2        1.0  0.3609085188373051  0.979974303774446  0.6172665102315829  1.0000
  F   F3        1.0  0.3609085192051321  0.5200256969268182  0.11726651022426803  1.0000
  F   F4        1.0  0.6390914813499452  0.0200256962480971  0.38273349023546416  1.0000
  F   F5        1.0  0.9137158892664787  0.6798742975298306  0.894439141783445  1.0000
  F   F6        1.0  0.08628411035892702  0.17987429818600864  0.6055608579794448  1.0000
  F   F7        1.0  0.08628411072675399  0.32012570249271244  0.10556085797212977  1.0000
  F   F8        1.0  0.9137158890336357  0.8201257018365344  0.3944391417756782  1.0000
  F   F9        1.0  0.8599443821018609  0.48159791287790815  0.17468543700987516  1.0000
  F   F10       1.0  0.1400556182591987  0.9815979122217302  0.32531456273838466  1.0000
  F   F11       1.0  0.1400556178913717  0.5184020871446349  0.8253145627456996  1.0000
  F   F12       1.0  0.859944381734034  0.018402087800812914  0.6746854370171902  1.0000
  F   F13       1.0  0.9682866696743229  0.6194956817694521  0.08509310025637434  1.0000
  F   F14       1.0  0.03171333068673673  0.11949568242563013  0.4149068994918855  1.0000
  F   F15       1.0  0.03171333031890974  0.380504318253091  0.9149068994992005  1.0000
  F   F16       1.0  0.9682866693064959  0.8805043175969128  0.5850931002636893  1.0000
  F   F17       1.0  0.695885872076585  0.409890890546896  0.07208110156846242  1.0000
  F   F18       1.0  0.30411412768380464  0.9098908912256171  0.4279188981793455  1.0000
  F   F19       1.0  0.30411412791664766  0.5901091094756471  0.9279188981871123  1.0000
  F   F20       1.0  0.695885872309428  0.09010910879692603  0.5720811015762292  1.0000
  I   I1        1.0  0.7362889429369984  0.6095677432419848  0.733588119495438  1.0000
  I   I2        1.0  0.2637110572890773  0.10956774389816282  0.7664118802679036  1.0000
  I   I3        1.0  0.26371105705623427  0.3904322567805583  0.2664118802601368  1.0000
  I   I4        1.0  0.7362889427041553  0.8904322561243802  0.23358811948767116  1.0000
