data_image0
_chemical_formula_structural       H58C42N12O12S4
_chemical_formula_sum              "H58 C42 N12 O12 S4"
_cell_length_a       19.841443662012885
_cell_length_b       8.876630687853151
_cell_length_c       7.411452766138645
_cell_angle_alpha    90.0
_cell_angle_beta     103.945878646759
_cell_angle_gamma    90.0

_space_group_name_H-M_alt    "P 1"
_space_group_IT_number       1

loop_
  _space_group_symop_operation_xyz
  'x, y, z'

loop_
  _atom_site_type_symbol
  _atom_site_label
  _atom_site_symmetry_multiplicity
  _atom_site_fract_x
  _atom_site_fract_y
  _atom_site_fract_z
  _atom_site_occupancy
  H   H1        1.0  0.1607789484959187  0.6772667402088337  0.11886882749488216  1.0000
  H   H2        1.0  0.8392210517171418  0.6772667402088337  0.8811311716185419  1.0000
  H   H3        1.0  0.6607789481711344  0.1772667406511834  0.11886882794024294  1.0000
  H   H4        1.0  0.3392210515077242  0.1772667406511834  0.88113117213792  1.0000
  H   H5        1.0  0.09835856912841237  0.5774654089207952  0.2086268072471982  1.0000
  H   H6        1.0  0.9016414305655657  0.5774654089207952  0.7913731914920288  1.0000
  H   H7        1.0  0.5983585693227105  0.07746540936314504  0.20862680806675607  1.0000
  H   H8        1.0  0.4016414308752305  0.07746540936314504  0.791373192385604  1.0000
  H   H9        1.0  0.14555212776875523  0.7300306104733604  0.33509327381300524  1.0000
  H   H10       1.0  0.8544478719101033  0.7300306104733604  0.6649067262651577  1.0000
  H   H11       1.0  0.6455521279781727  0.23003060978915651  0.3350932732936271  1.0000
  H   H12       1.0  0.3544478722348877  0.23003060978915651  0.6649067258197969  1.0000
  H   H13       1.0  0.9543673359438062  0.25288480719061046  0.9378113122247661  1.0000
  H   H14       1.0  0.045632664269254254  0.25288480719061046  0.06218868688865792  1.0000
  H   H15       1.0  0.45436733573438864  0.7528848067482607  0.9378113127441443  1.0000
  H   H16       1.0  0.5456326639444699  0.7528848067482607  0.06218868733401864  1.0000
  H   H17       1.0  0.8967680873344643  0.3295264445329136  0.3129157183975291  1.0000
  H   H18       1.0  0.10323191234439431  0.3295264445329136  0.687084281680634  1.0000
  H   H19       1.0  0.39676808764412924  0.8295264452171174  0.3129157192911044  1.0000
  H   H20       1.0  0.6032319125538118  0.8295264452171174  0.6870842811612557  1.0000
  H   H21       1.0  0.9999999998971127  0.7475752786562004  0.5000000000760902  1.0000
  H   H22       1.0  0.5000000001065301  0.2475752790985503  0.499999999556712  1.0000
  H   H23       1.0  0.8552107129136165  0.5834922756319685  0.16155843727487873  1.0000
  H   H24       1.0  0.14478928678036143  0.5834922756319685  0.8384415614643481  1.0000
  H   H25       1.0  0.35521071322328146  0.08349227607431817  0.16155843816845405  1.0000
  H   H26       1.0  0.6447892869746595  0.08349227607431817  0.8384415622839061  1.0000
  H   H27       1.0  0.8898429530120775  0.7517755423948981  0.2801662100418367  1.0000
  H   H28       1.0  0.11015704718586362  0.7517755423948981  0.7198337904105235  1.0000
  H   H29       1.0  0.3898429528177793  0.25177554283724785  0.28016620922227886  1.0000
  H   H30       1.0  0.6101570468761986  0.25177554283724785  0.719833789516948  1.0000
  H   H31       1.0  0.8363548277609071  0.6297807159702894  0.3755966631482736  1.0000
  H   H32       1.0  0.16364517191795147  0.6297807159702894  0.6244033369298893  1.0000
  H   H33       1.0  0.33635482807057204  0.12978071528608562  0.375596664041849  1.0000
  H   H34       1.0  0.663645172127369  0.12978071528608562  0.624403336410511  1.0000
  H   H35       1.0  0.30305797714969746  0.8178064589229528  0.937655698535041  1.0000
  H   H36       1.0  0.696942023063363  0.8178064589229528  0.06234430057838301  1.0000
  H   H37       1.0  0.8030579773439955  0.317806458238749  0.9376556993545989  1.0000
  H   H38       1.0  0.19694202285394546  0.317806458238749  0.06234430109776121  1.0000
  H   H39       1.0  0.24099792078683072  0.9267174245805558  0.008096396142703584  1.0000
  H   H40       1.0  0.7590020794111103  0.9267174245805558  0.9919036043096566  1.0000
  H   H41       1.0  0.7409979209811288  0.4267174250229056  0.008096396962261493  1.0000
  H   H42       1.0  0.2590020792168122  0.4267174250229056  0.9919036034900988  1.0000
  H   H43       1.0  0.16418726190502256  0.06610536482079533  0.5545372515177558  1.0000
  H   H44       1.0  0.8358127377738359  0.06610536482079533  0.44546274856040713  1.0000
  H   H45       1.0  0.6641872621144401  0.5661053643784456  0.5545372509983777  1.0000
  H   H46       1.0  0.335812738083501  0.5661053643784456  0.4454627494539825  1.0000
  H   H47       1.0  0.16386779973039864  0.07102781811828268  0.7937476087520047  1.0000
  H   H48       1.0  0.8361322004675424  0.07102781811828268  0.20625239170035548  1.0000
  H   H49       1.0  0.6638677994056142  0.5710278176759329  0.7937476091973653  1.0000
  H   H50       1.0  0.3361322002732443  0.5710278176759329  0.20625239088079758  1.0000
  H   H51       1.0  0.24702497423643072  0.9160146023791088  0.46094372213613183  1.0000
  H   H52       1.0  0.7529750259766297  0.9160146023791088  0.5390562769772922  1.0000
  H   H53       1.0  0.7470249744307288  0.4160146016949051  0.4609437229556898  1.0000
  H   H54       1.0  0.2529750257672122  0.4160146016949051  0.5390562774966704  1.0000
  H   H55       1.0  0.3087528120350081  0.8153331668854635  0.627709463699799  1.0000
  H   H56       1.0  0.6912471881629331  0.8153331668854635  0.3722905367525612  1.0000
  H   H57       1.0  0.8087528117253431  0.31533316620125973  0.6277094628062238  1.0000
  H   H58       1.0  0.19124718796863485  0.31533316620125973  0.37229053593300326  1.0000
  C   C1        1.0  0.06262837225958973  0.9464187680463045  0.08480019341640142  1.0000
  C   C2        1.0  0.9373716274192688  0.9464187680463045  0.9151998066617615  1.0000
  C   C3        1.0  0.5626283724538879  0.44641876848865436  0.08480019423595936  1.0000
  C   C4        1.0  0.4373716277440532  0.44641876848865436  0.9151998062164007  1.0000
  C   C5        1.0  0.06278746260883121  0.793104015201817  0.09709596589152478  1.0000
  C   C6        1.0  0.9372125375891099  0.793104015201817  0.9029040345608356  1.0000
  C   C7        1.0  0.5627874628031293  0.29310401564416666  0.09709596671108266  1.0000
  C   C8        1.0  0.43721253739481175  0.29310401564416666  0.9029040337412775  1.0000
  C   C9        1.0  0.0  0.713868336177515  0.0  1.0000
  C   C10       1.0  0.5000000002094176  0.21386833549331127  0.9999999994806218  1.0000
  C   C11       1.0  0.0  0.03430133016761113  0.0  1.0000
  C   C12       1.0  0.5000000002094176  0.534301330851815  0.9999999994806218  1.0000
  C   C13       1.0  0.12032245079435888  0.689954175786627  0.1956659912119537  1.0000
  C   C14       1.0  0.8796775494035822  0.689954175786627  0.8043340092404064  1.0000
  C   C15       1.0  0.6203224504846938  0.1899541762289767  0.19566599031837834  1.0000
  C   C16       1.0  0.3796775492092841  0.1899541762289767  0.8043340084208485  1.0000
  C   C17       1.0  0.0  0.5620597843309236  0.0  1.0000
  C   C18       1.0  0.5000000002094176  0.06205978477327336  0.9999999994806218  1.0000
  C   C19       1.0  0.0  0.18716581982772754  0.0  1.0000
  C   C20       1.0  0.5000000002094176  0.6871658205119313  0.9999999994806218  1.0000
  C   C21       1.0  0.9999999998971127  0.3090443915565751  0.5000000000760902  1.0000
  C   C22       1.0  0.5000000001065301  0.8090443911142253  0.499999999556712  1.0000
  C   C23       1.0  0.9407819670096316  0.3915365404078301  0.3960198941408663  1.0000
  C   C24       1.0  0.05921803266922704  0.3915365404078301  0.6039801059372968  1.0000
  C   C25       1.0  0.4407819673344159  0.8915365399654804  0.39601989369550555  1.0000
  C   C26       1.0  0.5592180328786446  0.8915365399654804  0.6039801054179186  1.0000
  C   C27       1.0  0.9404481966289561  0.5476030614466875  0.4003573381531475  1.0000
  C   C28       1.0  0.05955180356898506  0.5476030614466875  0.5996426622992127  1.0000
  C   C29       1.0  0.4404481964195384  0.04760306188903716  0.40035733867252565  1.0000
  C   C30       1.0  0.5595518032593201  0.04760306188903716  0.5996426614056374  1.0000
  C   C31       1.0  0.9999999998971127  0.6244080862330558  0.5000000000760902  1.0000
  C   C32       1.0  0.5000000001065301  0.1244080866754056  0.499999999556712  1.0000
  C   C33       1.0  0.9999999998971127  0.15505313315370967  0.5000000000760902  1.0000
  C   C34       1.0  0.5000000001065301  0.65505313271136  0.499999999556712  1.0000
  C   C35       1.0  0.8773082538331122  0.6333007565238248  0.29851496958700974  1.0000
  C   C36       1.0  0.1226917463799482  0.6333007565238248  0.7014850295264143  1.0000
  C   C37       1.0  0.3773082536236947  0.1333007569661746  0.298514970106388  1.0000
  C   C38       1.0  0.6226917465742463  0.1333007569661746  0.7014850303459722  1.0000
  C   C39       1.0  0.2403912626246768  0.9427526326460189  0.7311417022240957  1.0000
  C   C40       1.0  0.7596087370541817  0.9427526326460189  0.2688582978540673  1.0000
  C   C41       1.0  0.7403912628340943  0.4427526330883687  0.7311417017047175  1.0000
  C   C42       1.0  0.2596087373638467  0.4427526330883687  0.26885829874764267  1.0000
  N   N1        1.0  0.2676259641783838  0.90400711623396  0.9088528559419093  1.0000
  N   N2        1.0  0.7323740355004748  0.90400711623396  0.09114714413625373  1.0000
  N   N3        1.0  0.7676259643878013  0.4040071166763098  0.9088528554225311  1.0000
  N   N4        1.0  0.23237403581013974  0.4040071166763098  0.0911471450298291  1.0000
  N   N5        1.0  0.18455322812580918  0.03166145690668273  0.6886981432711374  1.0000
  N   N6        1.0  0.8154467720721319  0.03166145690668273  0.31130185718122283  1.0000
  N   N7        1.0  0.6845532278161442  0.5316614564643329  0.6886981423775621  1.0000
  N   N8        1.0  0.3154467718627143  0.5316614564643329  0.3113018577006009  1.0000
  N   N9        1.0  0.2705207449360323  0.8953976524985162  0.5976939766657998  1.0000
  N   N10       1.0  0.7294792552770282  0.8953976524985162  0.40230602244762415  1.0000
  N   N11       1.0  0.7705207446112479  0.39539765294086593  0.5976939771111607  1.0000
  N   N12       1.0  0.2294792550676106  0.39539765294086593  0.40230602296700235  1.0000
  O   O1        1.0  0.1342781895709926  0.144087589647073  0.3236047008471868  1.0000
  O   O2        1.0  0.8657218101078659  0.144087589647073  0.6763952992309762  1.0000
  O   O3        1.0  0.6342781897804102  0.6440875903312768  0.32360470032780864  1.0000
  O   O4        1.0  0.36572181041753093  0.6440875903312768  0.6763953001245515  1.0000
  O   O5        1.0  0.14743946206558123  0.14516336606898353  0.0051121693713331185  1.0000
  O   O6        1.0  0.8525605381323599  0.14516336606898353  0.9948878310810271  1.0000
  O   O7        1.0  0.6474394617407968  0.6451633656266338  0.00511216981669388  1.0000
  O   O8        1.0  0.3525605379380617  0.6451633656266338  0.9948878302614691  1.0000
  O   O9        1.0  0.1993432561699296  0.9434180822076509  0.21461906106217957  1.0000
  O   O10       1.0  0.8006567440280115  0.9434180822076509  0.7853809393901806  1.0000
  O   O11       1.0  0.6993432558602647  0.4434180826500006  0.21461906016860427  1.0000
  O   O12       1.0  0.300656743818594  0.4434180826500006  0.7853809399095587  1.0000
  S   S1        1.0  0.14116122279843626  0.050760524555401455  0.16445649069311252  1.0000
  S   S2        1.0  0.8588387773995046  0.050760524555401455  0.8355435097592474  1.0000
  S   S3        1.0  0.6411612224887713  0.5507605241130517  0.16445648979953725  1.0000
  S   S4        1.0  0.3588387772052066  0.5507605241130517  0.8355435089396898  1.0000
