data_image0
_chemical_formula_structural       H128C108N4O44Cl4
_chemical_formula_sum              "H128 C108 N4 O44 Cl4"
_cell_length_a       7.245316589040848
_cell_length_b       12.983625299204686
_cell_length_c       27.662170691785846
_cell_angle_alpha    90.0
_cell_angle_beta     90.0
_cell_angle_gamma    90.0

_space_group_name_H-M_alt    "P 1"
_space_group_IT_number       1

loop_
  _space_group_symop_operation_xyz
  'x, y, z'

loop_
  _atom_site_type_symbol
  _atom_site_label
  _atom_site_symmetry_multiplicity
  _atom_site_fract_x
  _atom_site_fract_y
  _atom_site_fract_z
  _atom_site_occupancy
  H   H1        1.0  0.11682226298851771  0.9709430047070292  0.09927082587251282  1.0000
  H   H2        1.0  0.3831777377677745  0.029056995354225866  0.599270825659481  1.0000
  H   H3        1.0  0.8831777371438647  0.47094300467640177  0.4007291742759599  1.0000
  H   H4        1.0  0.6168222623646079  0.5290569953848535  0.9007291740629281  1.0000
  H   H5        1.0  0.050171770347460044  0.03619402356203129  0.04539910710524664  1.0000
  H   H6        1.0  0.4498282290286302  0.9638059764992238  0.5453991068922148  1.0000
  H   H7        1.0  0.9498282297849222  0.5361940235926589  0.4546008930432261  1.0000
  H   H8        1.0  0.5501717697235503  0.4638059764685963  0.9546008928301943  1.0000
  H   H9        1.0  0.2875099278823599  0.017928530332299318  0.058638678000843485  1.0000
  H   H10       1.0  0.2124900714937303  0.982071468958755  0.5586386781493162  1.0000
  H   H11       1.0  0.7124900708698205  0.517928530362927  0.4413613217861247  1.0000
  H   H12       1.0  0.7875099286386521  0.48207146969832826  0.9413613219345974  1.0000
  H   H13       1.0  0.0015395559135224302  0.8489362258994928  0.03567100720309731  1.0000
  H   H14       1.0  0.4984604434625678  0.15106377416176228  0.53567100735157  1.0000
  H   H15       1.0  0.9984604442188599  0.3489362258688653  0.4643289929453754  1.0000
  H   H16       1.0  0.5015395566698145  0.6510637741923899  0.9643289927323436  1.0000
  H   H17       1.0  0.18322780981137823  0.8884181501068558  0.9962546864835663  1.0000
  H   H18       1.0  0.31677219094491393  0.11158184995439929  0.49625468633509345  1.0000
  H   H19       1.0  0.8167721903210041  0.38841815007622826  0.5037453136003475  1.0000
  H   H20       1.0  0.6832278091874685  0.6115818499850268  0.003745313451874715  1.0000
  H   H21       1.0  0.07107739512431355  0.7208483504659751  0.9846834467003106  1.0000
  H   H22       1.0  0.4289226056319786  0.2791516495952801  0.4846834469133424  1.0000
  H   H23       1.0  0.9289226050080689  0.22084835043534748  0.5153165530220986  1.0000
  H   H24       1.0  0.5710773945004037  0.7791516496259077  0.015316553235130334  1.0000
  H   H25       1.0  0.08023106828475439  0.5359542130676131  0.9663665168524856  1.0000
  H   H26       1.0  0.4197689324715378  0.464045786993642  0.4663665170655175  1.0000
  H   H27       1.0  0.919768931847628  0.03595421303698551  0.5336334828699234  1.0000
  H   H28       1.0  0.5802310676608445  0.9640457862540688  0.03363348308295526  1.0000
  H   H29       1.0  0.45315075602992255  0.48604995635437526  0.08469877892466801  1.0000
  H   H30       1.0  0.04684924472636958  0.5139500437068799  0.5846987790731407  1.0000
  H   H31       1.0  0.5468492441024598  0.9860499563850029  0.4153012208623002  1.0000
  H   H32       1.0  0.9531507554060128  0.013950043676252322  0.9153012210107729  1.0000
  H   H33       1.0  0.4417129535568949  0.6733857423115525  0.1043734156718706  1.0000
  H   H34       1.0  0.058287045819195346  0.32661425774970265  0.6043734154588387  1.0000
  H   H35       1.0  0.5582870465754874  0.17338574228092488  0.39562658447660215  1.0000
  H   H36       1.0  0.941712954313187  0.8266142577803303  0.8956265842635703  1.0000
  H   H37       1.0  0.1947569319654535  0.3658862352020429  0.980491879404602  1.0000
  H   H38       1.0  0.3052430674106367  0.6341137648592122  0.48049187925612924  1.0000
  H   H39       1.0  0.8052430667867269  0.8658862352326705  0.5195081206793117  1.0000
  H   H40       1.0  0.6947569327217457  0.1341137648285847  0.01950812053083899  1.0000
  H   H41       1.0  0.4228315025783518  0.36165378326865516  0.002810832196299353  1.0000
  H   H42       1.0  0.07716849679773845  0.6383462167926  0.5028108323447721  1.0000
  H   H43       1.0  0.5771684975540305  0.8616537832992828  0.4971891675906689  1.0000
  H   H44       1.0  0.9228315033346438  0.1383462167619724  0.9971891677391416  1.0000
  H   H45       1.0  0.8328624975653192  0.2502871320692732  0.11794121135145723  1.0000
  H   H46       1.0  0.6671375019431534  0.749712867991982  0.61794121149993  1.0000
  H   H47       1.0  0.16713750256706317  0.7502871320999008  0.3820587887970155  1.0000
  H   H48       1.0  0.3328624968090271  0.24971286796135436  0.8820587885839838  1.0000
  H   H49       1.0  0.06625256662021808  0.16661882718785134  0.16960537885022758  1.0000
  H   H50       1.0  0.43374743413607403  0.8333811728734039  0.6696053786371957  1.0000
  H   H51       1.0  0.9337474335121643  0.6666188272184789  0.33039462129824515  1.0000
  H   H52       1.0  0.5662525659963084  0.33338117284277624  0.8303946210852133  1.0000
  H   H53       1.0  0.49549118328799646  0.2702049403886369  0.07378891637763314  1.0000
  H   H54       1.0  0.004508816088093762  0.7297950596726182  0.5737889165261059  1.0000
  H   H55       1.0  0.5045088168443859  0.7702049404192646  0.4262110837708396  1.0000
  H   H56       1.0  0.9954911840442886  0.2297950596419907  0.9262110835578078  1.0000
  H   H57       1.0  0.5057369384717361  0.8780236811592449  0.11869820075164982  1.0000
  H   H58       1.0  0.9942630610367365  0.12197631890201033  0.6186982009001225  1.0000
  H   H59       1.0  0.49426306166064626  0.3780236811286173  0.38130179939682296  1.0000
  H   H60       1.0  0.005736937715443929  0.6219763189326379  0.8813017991837911  1.0000
  H   H61       1.0  0.6615884842424207  0.8445850082158264  0.16654983520031805  1.0000
  H   H62       1.0  0.838411515266052  0.15541499184542884  0.6665498353487909  1.0000
  H   H63       1.0  0.3384115158899617  0.3445850081851987  0.33345016458665017  1.0000
  H   H64       1.0  0.16158848486633046  0.6554149918760565  0.8334501647351229  1.0000
  H   H65       1.0  0.2582445842090795  0.8532423829790126  0.1747259903733884  1.0000
  H   H66       1.0  0.24175541654721264  0.1467576170822427  0.6747259905218611  1.0000
  H   H67       1.0  0.7417554159233029  0.3532423829483849  0.3252740097750843  1.0000
  H   H68       1.0  0.7582445835851697  0.6467576171128702  0.8252740095620525  1.0000
  H   H69       1.0  0.4261056300382728  0.9838890768653422  0.24240842284988073  1.0000
  H   H70       1.0  0.07389437071801937  0.016110923195913028  0.7424084226368489  1.0000
  H   H71       1.0  0.5738943700941096  0.48388907683471455  0.25759157729859206  1.0000
  H   H72       1.0  0.926105629414363  0.5161109232265406  0.7575915774470647  1.0000
  H   H73       1.0  0.6538750131589717  0.8904390887426625  0.2612700720607625  1.0000
  H   H74       1.0  0.846124986349501  0.10956091131859261  0.7612700722092353  1.0000
  H   H75       1.0  0.3461249869734107  0.390439088712035  0.2387299277262057  1.0000
  H   H76       1.0  0.1538750124026795  0.6095609113492202  0.7387299278746785  1.0000
  H   H77       1.0  0.716222597898509  0.15220218039726152  0.2283441650468759  1.0000
  H   H78       1.0  0.7837774029901654  0.8477978196639937  0.728344164833844  1.0000
  H   H79       1.0  0.2837774022338734  0.652202180427889  0.2716558351015968  1.0000
  H   H80       1.0  0.21622259714221687  0.3477978196333661  0.771655834888565  1.0000
  H   H81       1.0  0.5749749053479923  0.2145903001506572  0.29826403328680157  1.0000
  H   H82       1.0  0.9250250941604803  0.785409699910598  0.7982640334352743  1.0000
  H   H83       1.0  0.42502509478439005  0.7145903001812848  0.20173596650016665  1.0000
  H   H84       1.0  0.07497490597190211  0.2854096998799704  0.7017359666486394  1.0000
  H   H85       1.0  0.29919108480074985  0.1795995291194084  0.22407367986636625  1.0000
  H   H86       1.0  0.2008089159555423  0.8204004709418468  0.724073680014839  1.0000
  H   H87       1.0  0.7008089153316326  0.679599529150036  0.27592631992060196  1.0000
  H   H88       1.0  0.79919108417684  0.32040047091121915  0.7759263200690747  1.0000
  H   H89       1.0  0.609669766077781  0.31328114192028916  0.21185133535959924  1.0000
  H   H90       1.0  0.8903302348108936  0.686718858140966  0.711851335508072  1.0000
  H   H91       1.0  0.3903302340546013  0.8132811419509167  0.288148664427369  1.0000
  H   H92       1.0  0.10966976532148888  0.18671885811033842  0.7881486645758418  1.0000
  H   H93       1.0  0.8236327283512106  0.05792918716208422  0.1632545547606283  1.0000
  H   H94       1.0  0.676367271157262  0.9420708128991709  0.6632545549091011  1.0000
  H   H95       1.0  0.1763672717811718  0.5579291871927118  0.3367454450263399  1.0000
  H   H96       1.0  0.32363272897512035  0.44207081286854333  0.8367454451748126  1.0000
  H   H97       1.0  0.7196255685895749  0.015641880855298572  0.10826478635276818  1.0000
  H   H98       1.0  0.7803744309188976  0.9843581192059566  0.6082647861397364  1.0000
  H   H99       1.0  0.28037443154280745  0.5156418808859261  0.39173521379570453  1.0000
  H   H100      1.0  0.21962556783328283  0.484358119175329  0.8917352135826728  1.0000
  H   H101      1.0  0.6688366726900358  0.4116201104731024  0.12682539302823997  1.0000
  H   H102      1.0  0.8311633268184367  0.5883798895881528  0.6268253928152082  1.0000
  H   H103      1.0  0.33116332606214466  0.911620109733529  0.3731746071202328  1.0000
  H   H104      1.0  0.16883667331394558  0.08837988955752518  0.873174606907201  1.0000
  H   H105      1.0  0.5899093804216792  0.5075707183573511  0.16769925258893395  1.0000
  H   H106      1.0  0.9100906204669954  0.4924292817039041  0.6676992523759021  1.0000
  H   H107      1.0  0.41009061971070326  0.007570718326723516  0.33230074755953876  1.0000
  H   H108      1.0  0.08990937966538695  0.9924292817345316  0.8323007473465069  1.0000
  H   H109      1.0  0.7418303719301695  0.6311740674233708  0.11788092685612313  1.0000
  H   H110      1.0  0.7581696289585048  0.3688259326378845  0.6178809266430914  1.0000
  H   H111      1.0  0.25816962820221273  0.13117406739274312  0.3821190732923496  1.0000
  H   H112      1.0  0.24183037117387746  0.8688259326685119  0.8821190734408223  1.0000
  H   H113      1.0  0.8561431407128024  0.5333157904999117  0.08497758640098405  1.0000
  H   H114      1.0  0.6438568587956702  0.46668420956134343  0.5849775861879521  1.0000
  H   H115      1.0  0.14385685941957999  0.03331579046928415  0.4150224137474887  1.0000
  H   H116      1.0  0.35614314133671215  0.966684209591971  0.9150224138959614  1.0000
  H   H117      1.0  0.12318237430093454  0.5682513604618533  0.1280289442741256  1.0000
  H   H118      1.0  0.37681762645535766  0.43174863959940185  0.6280289444225984  1.0000
  H   H119      1.0  0.8768176258314477  0.06825136043122573  0.37197105587434715  1.0000
  H   H120      1.0  0.6231823736770247  0.9317486396300295  0.8719710556613153  1.0000
  H   H121      1.0  0.11192745962635091  0.482850759747666  0.21020754136719566  1.0000
  H   H122      1.0  0.3880725411299412  0.5171492403135891  0.7102075415156683  1.0000
  H   H123      1.0  0.8880725405060315  0.9828507597782936  0.2897924587812771  1.0000
  H   H124      1.0  0.6119274590024412  0.017149240282961574  0.7897924585682453  1.0000
  H   H125      1.0  0.9639900222668687  0.6260423812829765  0.2319849613937044  1.0000
  H   H126      1.0  0.5360099786218059  0.3739576187782786  0.7319849611806726  1.0000
  H   H127      1.0  0.03600997786551368  0.12604238125234893  0.26801503875476834  1.0000
  H   H128      1.0  0.4639900215105765  0.8739576188089062  0.7680150385417365  1.0000
  C   C1        1.0  0.15045740743046143  0.9825585740510736  0.061029960331396176  1.0000
  C   C2        1.0  0.3495425933258307  0.017441426010181563  0.5610299604798689  1.0000
  C   C3        1.0  0.849542592701921  0.48255857402044605  0.43897003945557206  1.0000
  C   C4        1.0  0.6504574068065516  0.5174414260408091  0.9389700396040448  1.0000
  C   C5        1.0  0.14187886027711638  0.8812703306141225  0.03446175828432272  1.0000
  C   C6        1.0  0.3581211390989738  0.11872966944713258  0.5344617584327954  1.0000
  C   C7        1.0  0.858121139855266  0.381270330583495  0.46553824186415  1.0000
  C   C8        1.0  0.6418788610334086  0.6187296694777602  0.9655382416511182  1.0000
  C   C9        1.0  0.2591413000282098  0.7099714977576139  0.04556031426609046  1.0000
  C   C10       1.0  0.24085870072808235  0.2900285023036412  0.5455603144145632  1.0000
  C   C11       1.0  0.7408587001041725  0.2099714977269864  0.45443968552087777  1.0000
  C   C12       1.0  0.7591412994043  0.7900285023342688  0.9544396856693506  1.0000
  C   C13       1.0  0.15587182093715865  0.6706210221988887  0.006876341055059838  1.0000
  C   C14       1.0  0.3441281784389316  0.32937897786236636  0.5068763412035325  1.0000
  C   C15       1.0  0.8441281791952236  0.17062102216826122  0.4931236587319084  1.0000
  C   C16       1.0  0.6558718203132489  0.829378977122793  0.993123658880381  1.0000
  C   C17       1.0  0.162333704199902  0.565257248331832  0.9964446209633487  1.0000
  C   C18       1.0  0.3376662951761882  0.4347427517294231  0.49644462117638055  1.0000
  C   C19       1.0  0.8376662945522785  0.06525724830120444  0.5035553787590604  1.0000
  C   C20       1.0  0.6623337049561941  0.9347427517600507  0.003555378972092181  1.0000
  C   C21       1.0  0.27029157883344485  0.497254209915891  0.023474397842278602  1.0000
  C   C22       1.0  0.22970842054264537  0.5027457901453641  0.5234743979907514  1.0000
  C   C23       1.0  0.7297084212989375  0.9972542099465186  0.4765256019446896  1.0000
  C   C24       1.0  0.7702915782095351  0.00274579011473658  0.9765256020931624  1.0000
  C   C25       1.0  0.3710387844288641  0.5379068579888704  0.06242042677123423  1.0000
  C   C26       1.0  0.12896121494722612  0.4620931420723847  0.5624204265582025  1.0000
  C   C27       1.0  0.6289612143233164  0.03790685795824282  0.43757957337723846  1.0000
  C   C28       1.0  0.8710387851851562  0.9620931421030123  0.9375795735257112  1.0000
  C   C29       1.0  0.36635686341366513  0.6422530870873786  0.07354407695141953  1.0000
  C   C30       1.0  0.13364313734262703  0.3577469129738765  0.5735440770998923  1.0000
  C   C31       1.0  0.6336431367187172  0.14225308705675108  0.4264559228355487  1.0000
  C   C32       1.0  0.8663568627897553  0.8577469130045041  0.9264559229840215  1.0000
  C   C33       1.0  0.28045709597749974  0.3830438699047053  0.012296610551282814  1.0000
  C   C34       1.0  0.21954290339859048  0.6169561293863489  0.5122966106997555  1.0000
  C   C35       1.0  0.7195429041548826  0.8830438699353328  0.4877033892356854  1.0000
  C   C36       1.0  0.78045709535359  0.11695612935572139  0.9877033893841581  1.0000
  C   C37       1.0  0.22073907059066444  0.31861816208246563  0.054796090187170444  1.0000
  C   C38       1.0  0.2792609301656277  0.6813818379787896  0.5547960899741387  1.0000
  C   C39       1.0  0.7792609295417179  0.8186181621130931  0.4452039099613023  1.0000
  C   C40       1.0  0.7207390699667546  0.18138183794816193  0.9452039097482705  1.0000
  C   C41       1.0  0.034344373629771434  0.3099661332837848  0.06778448520516114  1.0000
  C   C42       1.0  0.46565562712652075  0.6900338667774704  0.5677844853536339  1.0000
  C   C43       1.0  0.9656556265026109  0.8099661333144124  0.432215514581807  1.0000
  C   C44       1.0  0.5343443730058617  0.19003386674684278  0.9322155147302797  1.0000
  C   C45       1.0  0.9783931292557125  0.25666723917272405  0.10890449175395185  1.0000
  C   C46       1.0  0.5216068702527601  0.7433327608885311  0.6089044915409201  1.0000
  C   C47       1.0  0.0216068708766699  0.7566672392033517  0.3910955083945209  1.0000
  C   C48       1.0  0.4783931298796223  0.2433327608579035  0.8910955085429936  1.0000
  C   C49       1.0  0.1104568986275236  0.20893771943389117  0.1376512437301491  1.0000
  C   C50       1.0  0.38954310074856663  0.7910622806273641  0.6376512435171173  1.0000
  C   C51       1.0  0.8895431015048587  0.7089377194645187  0.36234875641832365  1.0000
  C   C52       1.0  0.6104568993838158  0.2910622805967364  0.8623487562052918  1.0000
  C   C53       1.0  0.29705071456165544  0.2121374651938481  0.12500865093088448  1.0000
  C   C54       1.0  0.2029492861946367  0.7878625348674071  0.6250086510793572  1.0000
  C   C55       1.0  0.702949285570727  0.7121374652244756  0.3749913488560837  1.0000
  C   C56       1.0  0.7970507139377456  0.2878625348367795  0.8749913490045564  1.0000
  C   C57       1.0  0.35011673110833863  0.2675461021054561  0.08402477180470123  1.0000
  C   C58       1.0  0.14988326964795348  0.7324538979557991  0.5840247715916694  1.0000
  C   C59       1.0  0.6498832690240437  0.7675461021360837  0.4159752283437715  1.0000
  C   C60       1.0  0.8501167304844289  0.23245389792517146  0.9159752281307397  1.0000
  C   C61       1.0  0.4318636848433731  0.15251607423708524  0.15581769261802403  1.0000
  C   C62       1.0  0.06813631453271707  0.8474839258241699  0.6558176927664968  1.0000
  C   C63       1.0  0.5681363152890092  0.6525160742677129  0.3441823071689442  1.0000
  C   C64       1.0  0.9318636855996654  0.34748392579354237  0.844182307317417  1.0000
  C   C65       1.0  0.5445165510044709  0.9947093159559299  0.17230511672807156  1.0000
  C   C66       1.0  0.9554834485040017  0.005290684105325172  0.6723051165150398  1.0000
  C   C67       1.0  0.45548344774770955  0.49470931592530243  0.32769488342040115  1.0000
  C   C68       1.0  0.04451655162838069  0.5052906841359527  0.8276948832073694  1.0000
  C   C69       1.0  0.5291213769455874  0.8819927698238074  0.15804877783138824  1.0000
  C   C70       1.0  0.9708786239430871  0.11800723023744784  0.6580487776183563  1.0000
  C   C71       1.0  0.470878623186795  0.38199276979317975  0.34195122231708447  1.0000
  C   C72       1.0  0.029121376189295247  0.6180072302680754  0.8419512224655572  1.0000
  C   C73       1.0  0.5576796473064677  0.012087658599452458  0.227463513623261  1.0000
  C   C74       1.0  0.9423203522020048  0.9879123414618026  0.7274635137717338  1.0000
  C   C75       1.0  0.4423203528259146  0.5120876586300801  0.27253648616370724  1.0000
  C   C76       1.0  0.05767964793037754  0.48791234143117507  0.77253648631218  1.0000
  C   C77       1.0  0.5757699223674987  0.12689214006360144  0.23890068041415014  1.0000
  C   C78       1.0  0.9242300785211758  0.8731078599976537  0.7389006805626228  1.0000
  C   C79       1.0  0.4242300777648836  0.626892140094229  0.2610993197343226  1.0000
  C   C80       1.0  0.07576992161120662  0.37310785996702617  0.7610993195212907  1.0000
  C   C81       1.0  0.43805967358289943  0.19099679271797088  0.208885447725034  1.0000
  C   C82       1.0  0.061940327173392734  0.8090032073432843  0.7088854475120022  1.0000
  C   C83       1.0  0.561940326549483  0.6909967927485984  0.2911145524234387  1.0000
  C   C84       1.0  0.9380596729589896  0.3090032073126567  0.7911145522104069  1.0000
  C   C85       1.0  0.692717209568398  0.0520902586461293  0.1434758202536337  1.0000
  C   C86       1.0  0.8072827899400744  0.9479097414151259  0.6434758204021064  1.0000
  C   C87       1.0  0.30728279056398433  0.5520902586767569  0.35652417953333454  1.0000
  C   C88       1.0  0.19271721019230784  0.4479097413844983  0.8565241796818072  1.0000
  C   C89       1.0  0.8446518540344625  0.4371425968637331  0.1875342520223995  1.0000
  C   C90       1.0  0.6553481454740101  0.5628574031975221  0.6875342518093677  1.0000
  C   C91       1.0  0.15534814609791986  0.9371425968943607  0.31246574812607325  1.0000
  C   C92       1.0  0.3446518546583723  0.06285740316689449  0.8124657482745459  1.0000
  C   C93       1.0  0.7128527065072989  0.47658710394076426  0.14937637165354492  1.0000
  C   C94       1.0  0.7871472930011736  0.5234128961204909  0.6493763718020177  1.0000
  C   C95       1.0  0.2871472936250834  0.9765871039713919  0.3506236281334233  1.0000
  C   C96       1.0  0.21285270713120874  0.02341289608986333  0.8506236282818961  1.0000
  C   C97       1.0  0.8193185994079317  0.5591389132621295  0.12137874743853794  1.0000
  C   C98       1.0  0.6806814001005409  0.4408610867991256  0.6213787475870107  1.0000
  C   C99       1.0  0.18068140072445074  0.05913891323150199  0.3786212523484303  1.0000
  C   C100      1.0  0.3193186000318414  0.9408610868297532  0.878621252496903  1.0000
  C   C101      1.0  0.00042504560872579946  0.5766924412443304  0.15107842535441304  1.0000
  C   C102      1.0  0.4995749537673644  0.4233075588169248  0.6510784251413813  1.0000
  C   C103      1.0  0.9995749545236566  0.0766924412137028  0.3489215747940597  1.0000
  C   C104      1.0  0.500425046365018  0.9233075588475524  0.8489215745810278  1.0000
  C   C105      1.0  0.0058934898807027495  0.6832375931661697  0.17260056570389712  1.0000
  C   C106      1.0  0.4941065094953874  0.31676240689508545  0.6726005654908653  1.0000
  C   C107      1.0  0.9941065102516796  0.18323759313554216  0.32739943444457564  1.0000
  C   C108      1.0  0.5058934906369948  0.816762406925713  0.8273994342315438  1.0000
  N   N1        1.0  0.9954369365873045  0.5007502743011425  0.1896059997763463  1.0000
  N   N2        1.0  0.50456306430137  0.4992497257601126  0.6896059995633145  1.0000
  N   N3        1.0  0.004563063545077838  0.0007502742705149311  0.31039400037212644  1.0000
  N   N4        1.0  0.49543693583101234  0.9992497257907402  0.8103940001590946  1.0000
  O   O1        1.0  0.26626965382273143  0.8108905908309686  0.05848097020384491  1.0000
  O   O2        1.0  0.23373034555335875  0.1891094092302865  0.5584809699908131  1.0000
  O   O3        1.0  0.733730344929449  0.31089059080034104  0.4415190299446278  1.0000
  O   O4        1.0  0.7662696545790236  0.6891094092609141  0.9415190300931006  1.0000
  O   O5        1.0  0.377900697140201  0.04705665682122118  0.1568172671021845  1.0000
  O   O6        1.0  0.12209930223588916  0.952943343240034  0.6568172668891527  1.0000
  O   O7        1.0  0.6220993029921813  0.5470566568518488  0.3431827330462882  1.0000
  O   O8        1.0  0.8779006978964932  0.4529433432094064  0.8431827328332564  1.0000
  O   O9        1.0  0.38855363259877673  0.8298458736836767  0.18382462232112406  1.0000
  O   O10       1.0  0.1114463681575154  0.1701541263775785  0.6838246221080923  1.0000
  O   O11       1.0  0.6114463675336057  0.32984587365304907  0.31617537782734867  1.0000
  O   O12       1.0  0.8885536319748669  0.6701541264082062  0.8161753776143169  1.0000
  O   O13       1.0  0.7069337422394205  0.9564285331586595  0.24882748019640802  1.0000
  O   O14       1.0  0.7930662572690521  0.043571466902595606  0.7488274799833762  1.0000
  O   O15       1.0  0.2930662565127599  0.456428533128032  0.25117251995206474  1.0000
  O   O16       1.0  0.20693374286333027  0.5435714669332232  0.7511725201005375  1.0000
  O   O17       1.0  0.550599009853358  0.1403840297294816  0.28947440203518765  1.0000
  O   O18       1.0  0.9494009896551145  0.8596159703317735  0.7894744018221559  1.0000
  O   O19       1.0  0.4494009888988224  0.6403840297601092  0.21052559811328508  1.0000
  O   O20       1.0  0.050599010477267795  0.359615970301146  0.7105255979002534  1.0000
  O   O21       1.0  0.47351467224901106  0.29841740274477385  0.2113201377119626  1.0000
  O   O22       1.0  0.02648532712707913  0.7015825973164813  0.7113201378604354  1.0000
  O   O23       1.0  0.5264853278833713  0.7984174027754014  0.2886798620750056  1.0000
  O   O24       1.0  0.9735146730053033  0.2015825972858537  0.7886798622234783  1.0000
  O   O25       1.0  0.6138154993429683  0.15314636352928326  0.13527129818164052  1.0000
  O   O26       1.0  0.8861845015457063  0.8468536365319719  0.6352712983301133  1.0000
  O   O27       1.0  0.386184500789414  0.6531463635599108  0.3647287016053277  1.0000
  O   O28       1.0  0.11381549858667617  0.3468536365013443  0.8647287017538005  1.0000
  O   O29       1.0  0.8218195570648279  0.36084078229575695  0.21359755912989592  1.0000
  O   O30       1.0  0.6781804424436445  0.6391592177654982  0.7135975589168642  1.0000
  O   O31       1.0  0.17818044306755437  0.8608407823263845  0.2864024410185768  1.0000
  O   O32       1.0  0.3218195576887378  0.13915921773487067  0.7864024411670496  1.0000
  O   O33       1.0  0.030852535876502295  0.75840453132941  0.14364520030887976  1.0000
  O   O34       1.0  0.4691474634995879  0.2415954687318452  0.6436452000958479  1.0000
  O   O35       1.0  0.96914746425588  0.2584045312987824  0.356354799839593  1.0000
  O   O36       1.0  0.5308525366327944  0.7415954687624727  0.8563547996265612  1.0000
  O   O37       1.0  0.9818680719570545  0.6968122540130749  0.2189422698414057  1.0000
  O   O38       1.0  0.51813192893162  0.3031877460481804  0.7189422699898784  1.0000
  O   O39       1.0  0.018131928175327848  0.19681225398244723  0.2810577299455625  1.0000
  O   O40       1.0  0.48186807120076236  0.8031877460788078  0.7810577300940352  1.0000
  O   O41       1.0  0.0407963429019918  0.8585851472995639  0.16499397935373475  1.0000
  O   O42       1.0  0.4592036578543004  0.14141485276169125  0.6649939795022075  1.0000
  O   O43       1.0  0.9592036572303906  0.3585851472689363  0.33500602043323346  1.0000
  O   O44       1.0  0.540796342278082  0.6414148527923188  0.8350060205817063  1.0000
  Cl  Cl1       1.0  0.8647083840996639  0.36503122053979137  0.03131004033089802  1.0000
  Cl  Cl2       1.0  0.6352916154088087  0.6349687795214639  0.5313100404793708  1.0000
  Cl  Cl3       1.0  0.1352916160327185  0.8650312205704188  0.46868995945607017  1.0000
  Cl  Cl4       1.0  0.3647083847235737  0.13496877949083624  0.968689959604543  1.0000
