data_image0
_chemical_formula_structural       H68C40N8Br20
_chemical_formula_sum              "H68 C40 N8 Br20"
_cell_length_a       7.65780825678568
_cell_length_b       12.846813566624276
_cell_length_c       16.41267044275726
_cell_angle_alpha    90.0
_cell_angle_beta     101.39718616660099
_cell_angle_gamma    90.0

_space_group_name_H-M_alt    "P 1"
_space_group_IT_number       1

loop_
  _space_group_symop_operation_xyz
  'x, y, z'

loop_
  _atom_site_type_symbol
  _atom_site_label
  _atom_site_symmetry_multiplicity
  _atom_site_fract_x
  _atom_site_fract_y
  _atom_site_fract_z
  _atom_site_occupancy
  H   H1        1.0  0.16562206143746203  0.5669133767863764  0.26109671862338724  1.0000
  H   H2        1.0  0.8343779378713574  0.06691337704419426  0.2389032813835849  1.0000
  H   H3        1.0  0.8343779381762463  0.4330866234763911  0.7389032812523029  1.0000
  H   H4        1.0  0.16562206174235097  0.9330866232185733  0.7610967184921051  1.0000
  H   H5        1.0  0.2560021928993015  0.43953277135349145  0.2638943834644095  1.0000
  H   H6        1.0  0.7439978077150539  0.9395327710956737  0.23610561654180767  1.0000
  H   H7        1.0  0.7439978080199429  0.5604672281308728  0.7361056164105257  1.0000
  H   H8        1.0  0.25600219216348047  0.06046722838869068  0.7638943839554235  1.0000
  H   H9        1.0  0.4069374726338156  0.4785988991055016  0.14870331578190188  1.0000
  H   H10       1.0  0.5930625279805398  0.9785988988476837  0.35129668422431537  1.0000
  H   H11       1.0  0.5930625285502548  0.5214011011572659  0.8512966847145745  1.0000
  H   H12       1.0  0.40693747163316846  0.021401101415083758  0.6487033156513747  1.0000
  H   H13       1.0  0.18190386219028729  0.5190867327073926  0.1179048246965811  1.0000
  H   H14       1.0  0.818096137118532  0.019086732186807284  0.38209517531039106  1.0000
  H   H15       1.0  0.8180961374234211  0.4809132675553749  0.8820951751791091  1.0000
  H   H16       1.0  0.1819038624951762  0.9809132672975571  0.617904824565299  1.0000
  H   H17       1.0  0.40985005219264037  0.6547208563726482  0.09014489050950451  1.0000
  H   H18       1.0  0.5901499484217151  0.154720856630466  0.40985510949671267  1.0000
  H   H19       1.0  0.590149948726604  0.3452791431117162  0.9098551093654307  1.0000
  H   H20       1.0  0.40985005119199336  0.8452791436323015  0.5901448903789775  1.0000
  H   H21       1.0  0.26254171231274825  0.7008587719675228  0.1530728912167935  1.0000
  H   H22       1.0  0.7374582869960712  0.2008587714469374  0.3469271087901787  1.0000
  H   H23       1.0  0.7374582875657861  0.2991412282952448  0.8469271092804378  1.0000
  H   H24       1.0  0.2625417126176372  0.7991412280374269  0.6530728910855115  1.0000
  H   H25       1.0  0.6279785102002827  0.7068966715289766  0.1964033937121065  1.0000
  H   H26       1.0  0.3720214904140726  0.20689667178679438  0.30359660629411067  1.0000
  H   H27       1.0  0.3720214894134256  0.29310332873379097  0.8035966061635836  1.0000
  H   H28       1.0  0.6279785105051715  0.7931033284759731  0.6964033935808245  1.0000
  H   H29       1.0  0.7060837657773261  0.6702711232901195  0.4059732477632874  1.0000
  H   H30       1.0  0.2939162335314932  0.17027112276953427  0.09402675224368469  1.0000
  H   H31       1.0  0.29391623383638216  0.32972887697264797  0.5940267521124027  1.0000
  H   H32       1.0  0.7060837660822152  0.8297288767148301  0.9059732476320055  1.0000
  H   H33       1.0  0.7950680404116491  0.7072065273527072  0.3193844432778126  1.0000
  H   H34       1.0  0.2049319602027062  0.20720652761052502  0.18061555672840462  1.0000
  H   H35       1.0  0.20493195920205914  0.2927934721316572  0.6806155565978775  1.0000
  H   H36       1.0  0.7950680409813642  0.7927934726522425  0.8193844437680717  1.0000
  H   H37       1.0  0.8588322188957884  0.5104363324020038  0.2999945771391662  1.0000
  H   H38       1.0  0.14116778171856695  0.01043633265982159  0.20000542286705095  1.0000
  H   H39       1.0  0.14116778228828195  0.4895636678607637  0.7000054233573101  1.0000
  H   H40       1.0  0.8588322178951414  0.9895636676029459  0.7999945770086392  1.0000
  H   H41       1.0  0.9916008630479533  0.5781524252283272  0.38334590474660846  1.0000
  H   H42       1.0  0.008399137566402072  0.07815242548614498  0.11665409525960871  1.0000
  H   H43       1.0  0.008399137871291033  0.42184757503444037  0.6166540951283267  1.0000
  H   H44       1.0  0.9916008623121324  0.9218475747766226  0.8833459052376226  1.0000
  H   H45       1.0  0.9103177497171897  0.4059042083048008  0.42967964562140104  1.0000
  H   H46       1.0  0.08968225089716564  0.905904208046983  0.0703203543848162  1.0000
  H   H47       1.0  0.08968224989651864  0.5940957919579667  0.5703203542542892  1.0000
  H   H48       1.0  0.9103177500220787  0.09409579221578457  0.929679645490119  1.0000
  H   H49       1.0  0.8241230148691667  0.5074241146408202  0.48307008958533776  1.0000
  H   H50       1.0  0.1758769844396527  0.007424114120234857  0.016929910421634338  1.0000
  H   H51       1.0  0.17587698474454164  0.4925758856219473  0.5169299102903523  1.0000
  H   H52       1.0  0.8241230154388818  0.9925758853641294  0.983070090075597  1.0000
  H   H53       1.0  0.6089282866297416  0.3783711614394726  0.3402398360344307  1.0000
  H   H54       1.0  0.39107171267907764  0.8783711611816548  0.1597601639725414  1.0000
  H   H55       1.0  0.39107171298396665  0.6216288388232949  0.6597601638412595  1.0000
  H   H56       1.0  0.6089282871994567  0.12162883908111273  0.8402398365246898  1.0000
  H   H57       1.0  0.6062068131445054  0.36502022277203544  0.44672436317278796  1.0000
  H   H58       1.0  0.3937931874698499  0.8650202225142177  0.05327563683342925  1.0000
  H   H59       1.0  0.3937931877747389  0.6349797774907321  0.5532756367021472  1.0000
  H   H60       1.0  0.6062068121438583  0.13497977697014674  0.9467243630422608  1.0000
  H   H61       1.0  0.3503727999866187  0.46476527420868613  0.3972691855543122  1.0000
  H   H62       1.0  0.6496272006277367  0.9647652739508684  0.10273081445190498  1.0000
  H   H63       1.0  0.6496272009326256  0.5352347260540814  0.602730814320623  1.0000
  H   H64       1.0  0.35037279898597173  0.03523472553349607  0.8972691854237852  1.0000
  H   H65       1.0  0.506217885628051  0.5620431068415748  0.44005842834094544  1.0000
  H   H66       1.0  0.49378211498630437  0.06204310632098948  0.05994157166527173  1.0000
  H   H67       1.0  0.4937821139856573  0.43795689342119265  0.5599415715347447  1.0000
  H   H68       1.0  0.5062178861977661  0.9379568931633748  0.9400584288312046  1.0000
  C   C1        1.0  0.19077769516046916  0.8627450092990171  0.39372892902017875  1.0000
  C   C2        1.0  0.8092223041483502  0.36274500877843185  0.10627107098679334  1.0000
  C   C3        1.0  0.8092223044532392  0.13725499096375032  0.6062710708555114  1.0000
  C   C4        1.0  0.19077769546535814  0.6372549907059325  0.8937289288888968  1.0000
  C   C5        1.0  0.280447674299909  0.5212417091034013  0.2500788916288276  1.0000
  C   C6        1.0  0.7195523250089104  0.021241709361219146  0.24992110837814452  1.0000
  C   C7        1.0  0.7195523253137993  0.4787582911593662  0.7499211082468625  1.0000
  C   C8        1.0  0.2804476746047979  0.9787582909015483  0.7500788914975455  1.0000
  C   C9        1.0  0.3071837258727569  0.534477739899533  0.16154687011582966  1.0000
  C   C10       1.0  0.6928162747415983  0.0344777393789476  0.3384531298903875  1.0000
  C   C11       1.0  0.6928162750464875  0.4655222603632346  0.8384531297591056  1.0000
  C   C12       1.0  0.30718372487210993  0.9655222601054168  0.6615468699853025  1.0000
  C   C13       1.0  0.3696084656555027  0.644654992232146  0.15009504541758537  1.0000
  C   C14       1.0  0.6303915349588527  0.14465499248996383  0.3499049545886318  1.0000
  C   C15       1.0  0.6303915352637416  0.35534500803062147  0.8499049544573498  1.0000
  C   C16       1.0  0.3696084649196817  0.8553450077728036  0.6500950459085995  1.0000
  C   C17       1.0  0.5571651358478029  0.6207833817032338  0.2883611065394533  1.0000
  C   C18       1.0  0.44283486476655237  0.12078338196105165  0.2116388934667639  1.0000
  C   C19       1.0  0.44283486376590536  0.3792166177811306  0.7116388933362368  1.0000
  C   C20       1.0  0.5571651361526918  0.8792166183017159  0.7883611064081713  1.0000
  C   C21       1.0  0.7307677111250196  0.6426167654092685  0.34573722013573577  1.0000
  C   C22       1.0  0.26923228818379985  0.14261676566708634  0.15426277987123638  1.0000
  C   C23       1.0  0.26923228848868885  0.35738323485349893  0.6542627797399544  1.0000
  C   C24       1.0  0.7307677116947344  0.8573832345956811  0.8457372206259949  1.0000
  C   C25       1.0  0.8564750649038332  0.548129611555524  0.35996566058563395  1.0000
  C   C26       1.0  0.1435249344049863  0.04812961103493871  0.1400343394213382  1.0000
  C   C27       1.0  0.1435249347098752  0.4518703887072435  0.6400343392900562  1.0000
  C   C28       1.0  0.856475065208722  0.9518703884494257  0.8599656604543519  1.0000
  C   C29       1.0  0.8111014624704832  0.4688697799467464  0.4220780722703005  1.0000
  C   C30       1.0  0.18889853683833613  0.9688697796889286  0.07792192773667164  1.0000
  C   C31       1.0  0.1888985371432251  0.5311302203160211  0.5779219276053896  1.0000
  C   C32       1.0  0.8111014630401983  0.03113022057383892  0.9220780727605596  1.0000
  C   C33       1.0  0.62466431982308  0.42191698212868795  0.3990689018989537  1.0000
  C   C34       1.0  0.3753356807912754  0.9219169818708701  0.1009310981072635  1.0000
  C   C35       1.0  0.3753356810961644  0.5780830181340796  0.6009310979759815  1.0000
  C   C36       1.0  0.6246643188224329  0.07808301839189738  0.8990689017684266  1.0000
  C   C37       1.0  0.47552522322905866  0.5026165832105787  0.3910160614751821  1.0000
  C   C38       1.0  0.5244747773852967  0.002616583468396426  0.10898393853103515  1.0000
  C   C39       1.0  0.5244747763846497  0.49738341627378574  0.6089839384005081  1.0000
  C   C40       1.0  0.47552522353394766  0.997383416794371  0.8910160613439  1.0000
  N   N1        1.0  0.44041215605659234  0.5545656191749392  0.30976962542525116  1.0000
  N   N2        1.0  0.5595878432522271  0.05456561943275702  0.19023037458172093  1.0000
  N   N3        1.0  0.559587843557116  0.44543438108782835  0.690230374450439  1.0000
  N   N4        1.0  0.4404121563614813  0.9454343808300105  0.8097696252939692  1.0000
  N   N5        1.0  0.5248695988241648  0.6677339501747036  0.21476125884073086  1.0000
  N   N6        1.0  0.4751304017901904  0.1677339496541183  0.2852387411654863  1.0000
  N   N7        1.0  0.4751304007895435  0.33226605008806387  0.7852387410349593  1.0000
  N   N8        1.0  0.5248695980883439  0.832266049830246  0.714761259331745  1.0000
  Br  Br1       1.0  0.43354076975898037  0.8076863843464747  0.4296518904271995  1.0000
  Br  Br2       1.0  0.5664592295498391  0.3076863838258894  0.07034810957977261  1.0000
  Br  Br3       1.0  0.566459229854728  0.19231361591629278  0.5703481094484907  1.0000
  Br  Br4       1.0  0.4335407700638694  0.6923136156584749  0.9296518902959175  1.0000
  Br  Br5       1.0  0.08512120497747214  0.813520744720064  0.2803495087626556  1.0000
  Br  Br6       1.0  0.9148787943313471  0.31352074419947856  0.21965049124431651  1.0000
  Br  Br7       1.0  0.9148787946362362  0.18647925554270361  0.7196504911130346  1.0000
  Br  Br8       1.0  0.08512120528236111  0.6864792552848858  0.7803495086313736  1.0000
  Br  Br9       1.0  0.04154111915383857  0.8142582077454956  0.47127194414147155  1.0000
  Br  Br10      1.0  0.9584588814605167  0.3142582080033134  0.028728055864745614  1.0000
  Br  Br11      1.0  0.9584588804598696  0.1857417925172719  0.5287280557342184  1.0000
  Br  Br12      1.0  0.04154111945872756  0.6857417922594541  0.9712719440101896  1.0000
  Br  Br13      1.0  0.20031051389687274  0.01648771182842486  0.3949616408216151  1.0000
  Br  Br14      1.0  0.7996894854119465  0.516487711570607  0.10503835918535703  1.0000
  Br  Br15      1.0  0.7996894859816617  0.9835122884343426  0.6050383596756161  1.0000
  Br  Br16      1.0  0.2003105142017617  0.48351228791375733  0.8949616406903331  1.0000
  Br  Br17      1.0  0.8152586153822518  0.7607750193706724  0.1042220731675081  1.0000
  Br  Br18      1.0  0.18474138392656753  0.26077501962849026  0.395777926839464  1.0000
  Br  Br19      1.0  0.18474138449628252  0.2392249808920951  0.8957779273297232  1.0000
  Br  Br20      1.0  0.8152586156871409  0.7392249806342773  0.6042220730362261  1.0000
