data_image0
_chemical_formula_structural       H32C24O8I2
_chemical_formula_sum              "H32 C24 O8 I2"
_cell_length_a       4.751538715289524
_cell_length_b       11.973561171314467
_cell_length_c       12.456828378089346
_cell_angle_alpha    65.74727633685414
_cell_angle_beta     84.50606435779406
_cell_angle_gamma    82.67330555425463

_space_group_name_H-M_alt    "P 1"
_space_group_IT_number       1

loop_
  _space_group_symop_operation_xyz
  'x, y, z'

loop_
  _atom_site_type_symbol
  _atom_site_label
  _atom_site_symmetry_multiplicity
  _atom_site_fract_x
  _atom_site_fract_y
  _atom_site_fract_z
  _atom_site_occupancy
  H   H1        1.0  0.0766027191808401  0.055901300827900666  0.3573955249244206  1.0000
  H   H2        1.0  0.9233972788701605  0.9440986998268195  0.6426044750619384  1.0000
  H   H3        1.0  0.7779976345234582  0.13657992223145032  0.40384979852531905  1.0000
  H   H4        1.0  0.2220023637129776  0.8634200772014862  0.5961502023266705  1.0000
  H   H5        1.0  0.2253028674144354  0.2480288790337076  0.33355240745792786  1.0000
  H   H6        1.0  0.7746971329931297  0.7519711207823067  0.6664475924980682  1.0000
  H   H7        1.0  0.17791024552638404  0.25887571832838246  0.1891119226604788  1.0000
  H   H8        1.0  0.8220897548811812  0.7411242814876318  0.8108880772955172  1.0000
  H   H9        1.0  0.8727401548384413  0.06037079134302088  0.8593072836345129  1.0000
  H   H10       1.0  0.12725984556912398  0.9396292084729935  0.140692716321483  1.0000
  H   H11       1.0  0.5238308050379019  0.2507725626983069  0.5175748384826163  1.0000
  H   H12       1.0  0.47616919536966346  0.7492274371177073  0.4824251614733796  1.0000
  H   H13       1.0  0.24551509796172138  0.074153849879471  0.5566419911641007  1.0000
  H   H14       1.0  0.7544849024458438  0.9258461499365434  0.4433580087918952  1.0000
  H   H15       1.0  0.8419391776262161  0.2422791310317166  0.6682076574888581  1.0000
  H   H16       1.0  0.15806082253373785  0.7577208696195796  0.331792342482741  1.0000
  H   H17       1.0  0.5757661644307579  0.3544415298287324  0.149522163888618  1.0000
  H   H18       1.0  0.42423383362024275  0.6455584708259878  0.850477836097741  1.0000
  H   H19       1.0  0.8897517551055801  0.420888578881377  0.07266041393175868  1.0000
  H   H20       1.0  0.11024824530198518  0.5791114209346373  0.9273395860242373  1.0000
  H   H21       1.0  0.4291714065934405  0.5686988120894426  0.06660451805376166  1.0000
  H   H22       1.0  0.5708285938141248  0.43130118772657167  0.9333954819022342  1.0000
  H   H23       1.0  0.48411684385152015  0.5323968406007162  0.2169740342140582  1.0000
  H   H24       1.0  0.5158831565560452  0.467603159215298  0.7830259657419378  1.0000
  H   H25       1.0  0.8181700248637858  0.7332977285345458  0.19035205771846778  1.0000
  H   H26       1.0  0.18182997554377958  0.2667022712814685  0.8096479422375282  1.0000
  H   H27       1.0  0.47891906222369013  0.7380362816967632  0.1399965126373455  1.0000
  H   H28       1.0  0.5210809381216989  0.26196371773274924  0.8600034881998843  1.0000
  H   H29       1.0  0.7332396679886101  0.9283100240677503  0.03190142124755407  1.0000
  H   H30       1.0  0.2667603324189553  0.07168997574826394  0.9680985787084418  1.0000
  H   H31       1.0  0.9868616943683536  0.8411081198329663  0.972173547229372  1.0000
  H   H32       1.0  0.013138305977035528  0.1588918795965461  0.027826453607857692  1.0000
  C   C1        1.0  0.3950992772221828  0.969304517426392  0.7308465959931605  1.0000
  C   C2        1.0  0.6049007229377711  0.03069548322490421  0.26915340397843845  1.0000
  C   C3        1.0  0.5709908937705619  0.9659787006153366  0.8181856556144519  1.0000
  C   C4        1.0  0.4290091066370033  0.03402129920067759  0.1818143443415441  1.0000
  C   C5        1.0  0.9165249567761392  0.1362289496118334  0.32762367654546476  1.0000
  C   C6        1.0  0.08347504363142615  0.8637710502041808  0.6723763234105312  1.0000
  C   C7        1.0  0.06626561799520594  0.25258910128555084  0.2728347028808247  1.0000
  C   C8        1.0  0.9337343824123594  0.7474108985304636  0.7271652970751712  1.0000
  C   C9        1.0  0.7312412599625417  0.06404701073909717  0.7940747827903937  1.0000
  C   C10       1.0  0.26875874038284714  0.9359529886904154  0.20592521804683597  1.0000
  C   C11       1.0  0.5398044847666755  0.1702503611318887  0.601035438995599  1.0000
  C   C12       1.0  0.4601955156408897  0.8297496386841257  0.39896456096039706  1.0000
  C   C13       1.0  0.38214974673759355  0.0711666592494693  0.6231672604946011  1.0000
  C   C14       1.0  0.6178502534223602  0.9288333414018268  0.37683273947699797  1.0000
  C   C15       1.0  0.7151259522052046  0.16629257706654801  0.6858978038253772  1.0000
  C   C16       1.0  0.2848740482023606  0.8337074227494663  0.31410219613061874  1.0000
  C   C17       1.0  0.7361206647705675  0.4143205770898956  0.1468287123356536  1.0000
  C   C18       1.0  0.2638793356369977  0.5856794227261186  0.8531712876203424  1.0000
  C   C19       1.0  0.5931350663791519  0.5391022750651661  0.13243561323956138  1.0000
  C   C20       1.0  0.40686493378080196  0.46089772558613035  0.8675643867320376  1.0000
  C   C21       1.0  0.707811335984759  0.7342611810953359  0.11584890357713915  1.0000
  C   C22       1.0  0.2921886644228063  0.2657388187206782  0.8841510963788568  1.0000
  C   C23       1.0  0.7669249007473378  0.8485207086809611  0.007778506276555379  1.0000
  C   C24       1.0  0.23307509966022752  0.15147929113505326  0.9922214936794406  1.0000
  O   O1        1.0  0.8815567442245753  0.3619426348774731  0.2553292102642027  1.0000
  O   O2        1.0  0.11844325618299023  0.6380573649385411  0.7446707896917933  1.0000
  O   O3        1.0  0.7509303326273653  0.1313803140307426  0.2392384401573864  1.0000
  O   O4        1.0  0.24906966778019995  0.8686196857852717  0.7607615597986095  1.0000
  O   O5        1.0  0.5697457351850904  0.8627996828786434  0.921259993237161  1.0000
  O   O6        1.0  0.4302542631135217  0.13720031694079493  0.07874000673359488  1.0000
  O   O7        1.0  0.8013661854871917  0.6256277842739941  0.09639267342418477  1.0000
  O   O8        1.0  0.19863381492037366  0.3743722155420202  0.9036073265318111  1.0000
  I   I1        1.0  0.9542157351516837  0.46672119227229864  0.411384721884784  1.0000
  I   I2        1.0  0.04578426525588168  0.5332788075437156  0.588615278071212  1.0000
