data_image0
_chemical_formula_structural       H136C96N8S4I16
_chemical_formula_sum              "H136 C96 N8 S4 I16"
_cell_length_a       9.364902445311696
_cell_length_b       17.27564800980165
_cell_length_c       19.309342242890075
_cell_angle_alpha    96.94532385312633
_cell_angle_beta     103.51697172361685
_cell_angle_gamma    100.05353368494524

_space_group_name_H-M_alt    "P 1"
_space_group_IT_number       1

loop_
  _space_group_symop_operation_xyz
  'x, y, z'

loop_
  _atom_site_type_symbol
  _atom_site_label
  _atom_site_symmetry_multiplicity
  _atom_site_fract_x
  _atom_site_fract_y
  _atom_site_fract_z
  _atom_site_occupancy
  H   H1        1.0  0.7235924038403787  0.4213569071118907  0.7285962667394553  1.0000
  H   H2        1.0  0.2764075969867311  0.578643093278994  0.2714037334373383  1.0000
  H   H3        1.0  0.7816816929479569  0.5787589132051166  0.7546461249998176  1.0000
  H   H4        1.0  0.2183183066180857  0.42124108660008486  0.24535387517615018  1.0000
  H   H5        1.0  0.22077124926793418  0.5040336111005819  0.5893060865571584  1.0000
  H   H6        1.0  0.7792287510689533  0.4959663886039484  0.4106939130767353  1.0000
  H   H7        1.0  0.5370629768475648  0.954125862333194  0.5943246472609801  1.0000
  H   H8        1.0  0.46293702271847786  0.04587413747200752  0.40567535291498763  1.0000
  H   H9        1.0  0.7090195477925697  0.9453121978061102  0.655445865422041  1.0000
  H   H10       1.0  0.29098045147817647  0.054687801901068964  0.34455413421353137  1.0000
  H   H11       1.0  0.5773157809657067  0.9946303065512659  0.6888656875768924  1.0000
  H   H12       1.0  0.42268421879526163  0.005369693842267791  0.31113431260157964  1.0000
  H   H13       1.0  0.24581658415882626  0.7362868893484011  0.5270196724017449  1.0000
  H   H14       1.0  0.7541834161780611  0.26371311035612915  0.4729803272321488  1.0000
  H   H15       1.0  0.6225342936510984  0.6862209394490533  0.6783439035763068  1.0000
  H   H16       1.0  0.37746570717601136  0.3137790609418315  0.3216560966004868  1.0000
  H   H17       1.0  0.4863251047026999  0.8228494284137631  0.5540469424578472  1.0000
  H   H18       1.0  0.5136748958291134  0.17715057187909947  0.44595305717855077  1.0000
  H   H19       1.0  0.6488756147104381  0.8059079377580877  0.6164230410234798  1.0000
  H   H20       1.0  0.3511243848556045  0.19409206204711374  0.383576959152488  1.0000
  H   H21       1.0  0.10340258197671766  0.5983436917046532  0.5176391974595734  1.0000
  H   H22       1.0  0.8965974172940285  0.40165630800252605  0.4823608021759988  1.0000
  H   H23       1.0  0.47944128191507257  0.548601719178373  0.6695237188311006  1.0000
  H   H24       1.0  0.5205587189120372  0.4513982812125118  0.33047628134569296  1.0000
  H   H25       1.0  0.29351796382662726  0.8143349178018752  0.667881647489691  1.0000
  H   H26       1.0  0.7064820357394153  0.1856650820033261  0.33211835268627676  1.0000
  H   H27       1.0  0.29816342423504033  0.8797240781404552  0.6025273586718709  1.0000
  H   H28       1.0  0.7018365750357058  0.12027592156672412  0.3974726409637014  1.0000
  H   H29       1.0  0.34647934349395765  0.9204160826911434  0.6975854103710519  1.0000
  H   H30       1.0  0.6535206570378557  0.07958391760171918  0.30241458926534615  1.0000
  H   H31       1.0  0.573598466044296  0.9052841213284735  0.776364892703038  1.0000
  H   H32       1.0  0.42640153352174665  0.094715878476728  0.22363510747292975  1.0000
  H   H33       1.0  0.702162476720228  0.8555444000029332  0.741525388976054  1.0000
  H   H34       1.0  0.2978375239119559  0.14445559979961936  0.25847461119823534  1.0000
  H   H35       1.0  0.5249088755374233  0.7992192250736359  0.7464758727357615  1.0000
  H   H36       1.0  0.47509112392824876  0.2007807752218755  0.253524126902315  1.0000
  H   H37       1.0  0.23489474466445082  0.4879548171147489  0.9045468439516148  1.0000
  H   H38       1.0  0.7651052549015918  0.5120451826904526  0.09545315622435303  1.0000
  H   H39       1.0  0.842059100053809  0.29847035913023456  0.8290545042307643  1.0000
  H   H40       1.0  0.1579409005783748  0.7015296406723179  0.17094549594352498  1.0000
  H   H41       1.0  0.37496268035805297  0.39680288422768567  0.9698138186076916  1.0000
  H   H42       1.0  0.6250373202741307  0.6031971155748668  0.030186181566597706  1.0000
  H   H43       1.0  0.9685843014332892  0.43886846347444797  0.8351610941957808  1.0000
  H   H44       1.0  0.03141569813275334  0.5611315363307535  0.16483890598018713  1.0000
  H   H45       1.0  0.9113039126855003  0.9950083231426025  0.8064016987784136  1.0000
  H   H46       1.0  0.08869608688054235  0.004991676662598976  0.1935983013975541  1.0000
  H   H47       1.0  0.7823070814941755  0.04275139709646332  0.8437849033287209  1.0000
  H   H48       1.0  0.21769291884271186  0.9572486026080669  0.15621509630517277  1.0000
  H   H49       1.0  0.9572138475362911  0.03325811452509281  0.9016106633767278  1.0000
  H   H50       1.0  0.042786153290818515  0.9667418858657919  0.09838933680006574  1.0000
  H   H51       1.0  0.9540850022533711  0.19337246962617233  0.7532658388847967  1.0000
  H   H52       1.0  0.04591499857373868  0.8066275307647124  0.24673416129199685  1.0000
  H   H53       1.0  0.7806440395713133  0.1330537202051677  0.758470914556305  1.0000
  H   H54       1.0  0.21935596076557404  0.8669462794993625  0.24152908507758875  1.0000
  H   H55       1.0  0.9112794242245414  0.08796074197370642  0.7208105293693277  1.0000
  H   H56       1.0  0.08872057640764229  0.9120392578288461  0.27918947080496165  1.0000
  H   H57       1.0  0.1400830025094791  0.07079572931399217  0.7974048323472224  1.0000
  H   H58       1.0  0.8599169981227047  0.9292042704885605  0.20259516782706696  1.0000
  H   H59       1.0  0.1934056404374383  0.11259063354622656  0.8922601612293092  1.0000
  H   H60       1.0  0.8065943598994492  0.8874093661583037  0.10773983840458462  1.0000
  H   H61       1.0  0.18988676018916478  0.17707535105276775  0.8259091896693603  1.0000
  H   H62       1.0  0.8101132390815813  0.8229246486544113  0.17409080996621187  1.0000
  H   H63       1.0  0.8398769981428421  0.1787671502599095  0.8860336749060187  1.0000
  H   H64       1.0  0.160123001127904  0.8212328494472697  0.11396632472955355  1.0000
  H   H65       1.0  0.009920946696971892  0.1641454158567724  0.9445994903019005  1.0000
  H   H66       1.0  0.9900790528690707  0.835854583948429  0.05540050987406741  1.0000
  H   H67       1.0  0.2481972608251739  0.2561416734528776  0.963700763991258  1.0000
  H   H68       1.0  0.7518027395117136  0.7438583262516527  0.03629923564263587  1.0000
  H   H69       1.0  0.5717708341225006  0.5564689412964199  0.5121692775862835  1.0000
  H   H70       1.0  0.42822916670460914  0.4435310590944649  0.48783072259051014  1.0000
  H   H71       1.0  0.8275809988802203  0.006320214214973793  0.418525628486891  1.0000
  H   H72       1.0  0.17241900088074824  0.9936797861785599  0.5814743716915811  1.0000
  H   H73       1.0  0.7617359041028778  0.9387973941852011  0.3337872330609154  1.0000
  H   H74       1.0  0.23826409565809054  0.06120260620833257  0.6662127671175566  1.0000
  H   H75       1.0  0.9447815063258184  0.9419294245221298  0.39253203322635094  1.0000
  H   H76       1.0  0.05521849450129137  0.05807057586875492  0.6074679669504426  1.0000
  H   H77       1.0  0.4736169221414984  0.7199187811286724  0.364946251834725  1.0000
  H   H78       1.0  0.5263830774245442  0.2800812186765291  0.6350537483412427  1.0000
  H   H79       1.0  0.9300911476308089  0.7336028880880323  0.48532193000344204  1.0000
  H   H80       1.0  0.06990885300137498  0.26639711171452024  0.5146780701708472  1.0000
  H   H81       1.0  0.6935307047551796  0.7997189034479931  0.33212808906741625  1.0000
  H   H82       1.0  0.3064692958770043  0.2002810963545595  0.667871911106873  1.0000
  H   H83       1.0  0.880457960846499  0.8067659789878985  0.38651086235484966  1.0000
  H   H84       1.0  0.11954203891446953  0.19323402140563517  0.6134891378236225  1.0000
  H   H85       1.0  0.38688800256786093  0.6074843749708494  0.4235598135428444  1.0000
  H   H86       1.0  0.6131119980643229  0.3925156248317031  0.576440186631445  1.0000
  H   H87       1.0  0.8435248374450279  0.6189676343902314  0.5416151628224395  1.0000
  H   H88       1.0  0.15647516289185948  0.38103236531429885  0.45838483681145425  1.0000
  H   H89       1.0  0.5503099738388755  0.8461786706115926  0.44898125644230846  1.0000
  H   H90       1.0  0.44969002572716693  0.15382132919360886  0.5510187437336592  1.0000
  H   H91       1.0  0.5406518247297711  0.8879655164363349  0.36772461936048223  1.0000
  H   H92       1.0  0.4593481748362713  0.11203448336886644  0.6322753808154855  1.0000
  H   H93       1.0  0.6071394422363793  0.9518591817385782  0.454935544801344  1.0000
  H   H94       1.0  0.3928605585907305  0.048140818652306586  0.5450644553754497  1.0000
  H   H95       1.0  0.8459809987837869  0.957719086764018  0.5299555164983194  1.0000
  H   H96       1.0  0.1540190009771816  0.04228091362951564  0.4700444836801527  1.0000
  H   H97       1.0  0.9637976730642825  0.892065270845617  0.5056237896543467  1.0000
  H   H98       1.0  0.036202327272604855  0.10793472885891325  0.494376209979547  1.0000
  H   H99       1.0  0.797222688410796  0.8528900840253856  0.531422824792211  1.0000
  H   H100      1.0  0.2027773119260914  0.14710991567914466  0.4685771748416827  1.0000
  H   H101      1.0  0.20887365138816333  0.43701604826166507  0.7548763363994835  1.0000
  H   H102      1.0  0.7911263481778793  0.5629839515435364  0.2451236637764844  1.0000
  H   H103      1.0  0.24892398852822314  0.5941317374315804  0.7808417887870172  1.0000
  H   H104      1.0  0.7510760110378195  0.40586826237362117  0.21915821138895072  1.0000
  H   H105      1.0  0.3168297673031966  0.0004098028641327767  0.9191189444763642  1.0000
  H   H106      1.0  0.6831702322628459  0.9995901969410687  0.0808810556996036  1.0000
  H   H107      1.0  0.26034295258800366  0.9332180428665398  0.8341823102290452  1.0000
  H   H108      1.0  0.7396570480441801  0.06678195693601265  0.16581768994524412  1.0000
  H   H109      1.0  0.4441299499867646  0.9419019978460935  0.8944972857541407  1.0000
  H   H110      1.0  0.5558700508403452  0.05809800254479112  0.10550271442265294  1.0000
  H   H111      1.0  0.05420107760327624  0.8320402431008943  0.9473612462877639  1.0000
  H   H112      1.0  0.9457989230289076  0.1679597567016581  0.05263875388652543  1.0000
  H   H113      1.0  0.040917768125511816  0.8741284509282543  0.8659763437366661  1.0000
  H   H114      1.0  0.9590822327015979  0.1258715494626304  0.1340236564401275  1.0000
  H   H115      1.0  0.09932861256063091  0.9381571903569766  0.9529217504644736  1.0000
  H   H116      1.0  0.9006713882664789  0.061842810033908104  0.04707824971232011  1.0000
  H   H117      1.0  0.4671303437915008  0.8909435271438001  0.00695416111411503  1.0000
  H   H118      1.0  0.5328696565453866  0.10905647256073023  0.9930458385197786  1.0000
  H   H119      1.0  0.3027850056414086  0.8450136383697627  0.031006676873013648  1.0000
  H   H120      1.0  0.6972149951857012  0.1549863620211221  0.9689933233037801  1.0000
  H   H121      1.0  0.3393440957185598  0.9505339925030442  0.030303264544442758  1.0000
  H   H122      1.0  0.6606559038474827  0.04946600730215731  0.969696735631525  1.0000
  H   H123      1.0  0.20707094428355366  0.7933239656855071  0.8319639282010622  1.0000
  H   H124      1.0  0.7929290549871923  0.20667603402167206  0.16803607143450996  1.0000
  H   H125      1.0  0.39546910685357384  0.8068014597328858  0.8871731001363831  1.0000
  H   H126      1.0  0.6045308929073946  0.19319854066064798  0.11282690004208898  1.0000
  H   H127      1.0  0.9938946780121192  0.7074340797402321  0.8668604236070889  1.0000
  H   H128      1.0  0.006105322620064771  0.2925659200623204  0.1331395765672005  1.0000
  H   H129      1.0  0.920468694057394  0.5949411907976005  0.9279811767165258  1.0000
  H   H130      1.0  0.07953130657478977  0.40505880900495195  0.0720188234577635  1.0000
  H   H131      1.0  0.1163507048050373  0.5488539755325892  0.015588976740039423  1.0000
  H   H132      1.0  0.883649295726776  0.4511460247602734  0.9844110228963585  1.0000
  H   H133      1.0  0.38423492486699407  0.615397193803878  0.040079676340336254  1.0000
  H   H134      1.0  0.6157650756648193  0.3846028064889846  0.9599203232960618  1.0000
  H   H135      1.0  0.4574222119087442  0.7314670690928728  0.9817757692205952  1.0000
  H   H136      1.0  0.5425777887234395  0.26853293070967965  0.01822423095369415  1.0000
  C   C1        1.0  0.5799076979026485  0.4225748650332891  0.8022092294636624  1.0000
  C   C2        1.0  0.42009230166339406  0.5774251347719123  0.1977907707123054  1.0000
  C   C3        1.0  0.6762893161922912  0.4563474896185709  0.7646785980994222  1.0000
  C   C4        1.0  0.3237106844398927  0.5436525101839816  0.23532140207486718  1.0000
  C   C5        1.0  0.7074022372360115  0.5412090240804115  0.7785946503313191  1.0000
  C   C6        1.0  0.29259776222966055  0.45879097621509984  0.22140534930675743  1.0000
  C   C7        1.0  0.6339189953081962  0.5712440769296596  0.826366433998359  1.0000
  C   C8        1.0  0.3660810042578464  0.4287559228755418  0.17363356617760886  1.0000
  C   C9        1.0  0.2821620038494321  0.5647647378831291  0.5933989368511315  1.0000
  C   C10       1.0  0.7178379967827516  0.43523526191942336  0.4066010633231577  1.0000
  C   C11       1.0  0.590077360700042  0.9467401482682243  0.6493562021808814  1.0000
  C   C12       1.0  0.4099226388660006  0.053259851536977244  0.3506437979950864  1.0000
  C   C13       1.0  0.29574087181134007  0.6952938395589283  0.5592549741260635  1.0000
  C   C14       1.0  0.7042591277547026  0.30470616024627306  0.44074502604990434  1.0000
  C   C15       1.0  0.5074604959698632  0.667521778296257  0.6442146368508356  1.0000
  C   C16       1.0  0.49253950436702415  0.33247822140827316  0.3557853627830582  1.0000
  C   C17       1.0  0.5273886403067047  0.8031536609330826  0.6056893616677091  1.0000
  C   C18       1.0  0.47261135896404133  0.1968463387740966  0.39431063796786314  1.0000
  C   C19       1.0  0.21642362015081976  0.6175966198125988  0.5535995099617359  1.0000
  C   C20       1.0  0.7835763794152228  0.3824033799926026  0.4464004902142319  1.0000
  C   C21       1.0  0.4276202349477446  0.5898049698296589  0.6385955674330751  1.0000
  C   C22       1.0  0.5723797646182979  0.4101950299755425  0.3614044327428926  1.0000
  C   C23       1.0  0.3503381386475519  0.8708945115973717  0.6573016843839662  1.0000
  C   C24       1.0  0.6496618619846318  0.1291054882051807  0.34269831579032306  1.0000
  C   C25       1.0  0.5835103525484007  0.8561614797080396  0.7373741324600229  1.0000
  C   C26       1.0  0.41648964778848674  0.14383851999649072  0.2626258671738708  1.0000
  C   C27       1.0  0.4416730849699388  0.7210525927091256  0.6046112867353067  1.0000
  C   C28       1.0  0.5583269156622449  0.2789474070934269  0.3953887134389826  1.0000
  C   C29       1.0  0.1804452858519766  0.42623181554214484  0.9016528610270765  1.0000
  C   C30       1.0  0.8195547144849109  0.5737681841623854  0.09834713860681739  1.0000
  C   C31       1.0  0.9600705997323071  0.3195616666928709  0.8585053764066596  1.0000
  C   C32       1.0  0.039929400899876864  0.6804383331096817  0.1414946237676298  1.0000
  C   C33       1.0  0.2590263984559216  0.3750271307184274  0.9377951724536999  1.0000
  C   C34       1.0  0.740973601110121  0.624972869086774  0.062204827722267944  1.0000
  C   C35       1.0  0.030688505752978202  0.39860413180279347  0.8624450888993138  1.0000
  C   C36       1.0  0.9693114938130645  0.6013958680024079  0.13755491127665398  1.0000
  C   C37       1.0  0.9006813721908289  0.04185439389277429  0.8475304618711441  1.0000
  C   C38       1.0  0.09931862737521391  0.9581456059124273  0.15246953830482363  1.0000
  C   C39       1.0  0.89965642243148  0.1349512980228437  0.7613323875447923  1.0000
  C   C40       1.0  0.10034357839562984  0.8650487023680411  0.23866761263200142  1.0000
  C   C41       1.0  0.13689194063531124  0.12036906112841685  0.8377868024607328  1.0000
  C   C42       1.0  0.8631080599968726  0.8796309386741356  0.16221319771355658  1.0000
  C   C43       1.0  0.9614974438380107  0.1840851483446817  0.8940127952270535  1.0000
  C   C44       1.0  0.038502556498876774  0.8159148513598486  0.10598720440684027  1.0000
  C   C45       1.0  0.038725915691925204  0.26761682983895196  0.8941738655133837  1.0000
  C   C46       1.0  0.9612740849402587  0.7323831699636006  0.10582613466090558  1.0000
  C   C47       1.0  0.18853438954927887  0.29600644687778466  0.934140730751072  1.0000
  C   C48       1.0  0.8114656110829049  0.7039935529247678  0.06585926942321721  1.0000
  C   C49       1.0  0.6095840529766491  0.6058869380171147  0.4863366572929503  1.0000
  C   C50       1.0  0.3904159475551643  0.39411306227574794  0.5136633423434478  1.0000
  C   C51       1.0  0.8290938048957999  0.9478359895599946  0.38995890048467835  1.0000
  C   C52       1.0  0.17090619437494636  0.0521640101471846  0.6100410991508939  1.0000
  C   C53       1.0  0.5549515102765951  0.6985183149404951  0.40437406054162883  1.0000
  C   C54       1.0  0.4450484892894474  0.3014816848647062  0.595625939634339  1.0000
  C   C55       1.0  0.8109042961869807  0.7057620997990841  0.4716583334265086  1.0000
  C   C56       1.0  0.18909570444520316  0.29423790000346856  0.5283416667477807  1.0000
  C   C57       1.0  0.7627273576124414  0.8037050759603136  0.3873822741677338  1.0000
  C   C58       1.0  0.23727264214852706  0.19629492443322002  0.6126177260107383  1.0000
  C   C59       1.0  0.5061601379380039  0.6345498733170658  0.43682043600409265  1.0000
  C   C60       1.0  0.4938398616280388  0.3654501264881357  0.5631795641718751  1.0000
  C   C61       1.0  0.7620009465351961  0.6412325814010491  0.503270438951538  1.0000
  C   C62       1.0  0.23799905322577225  0.3587674189924846  0.49672956122693396  1.0000
  C   C63       1.0  0.6026569363211304  0.8933244743783678  0.42438010876611937  1.0000
  C   C64       1.0  0.39734306324491225  0.10667552542683367  0.5756198914098485  1.0000
  C   C65       1.0  0.8485648232861176  0.8979151988878267  0.504406902140473  1.0000
  C   C66       1.0  0.15143517627992498  0.1020848009173748  0.49559309803549484  1.0000
  C   C67       1.0  0.707872898916886  0.7350986977019364  0.4217996189285841  1.0000
  C   C68       1.0  0.2921271019102237  0.2649013026889483  0.5782003812482096  1.0000
  C   C69       1.0  0.0030121436494306318  0.4352836532191051  0.6738012629178024  1.0000
  C   C70       1.0  0.9969878556213154  0.5647163464880741  0.32619873671776983  1.0000
  C   C71       1.0  0.1325772501126727  0.470623002219321  0.7266943797801786  1.0000
  C   C72       1.0  0.8674227494533697  0.5293769975858804  0.2733056203957891  1.0000
  C   C73       1.0  0.1534006978082749  0.5552895246430737  0.7410700226234671  1.0000
  C   C74       1.0  0.8465993017577677  0.44471047516212775  0.25892997755250063  1.0000
  C   C75       1.0  0.03982248186734211  0.5830202911325106  0.6985202994382919  1.0000
  C   C76       1.0  0.9601775176987005  0.41697970867269074  0.301479700737676  1.0000
  C   C77       1.0  0.32607611405514175  0.9433876944109273  0.8907115328116292  1.0000
  C   C78       1.0  0.673923886577042  0.056612305391625206  0.10928846736266012  1.0000
  C   C79       1.0  0.10220232621782328  0.8806522983104381  0.9229107549774634  1.0000
  C   C80       1.0  0.8977976741190642  0.11934770139409218  0.07708924465643038  1.0000
  C   C81       1.0  0.34953577251925116  0.8922231991070986  0.004752730727261649  1.0000
  C   C82       1.0  0.6504642270467914  0.10777680069810286  0.9952472694487061  1.0000
  C   C83       1.0  0.2765563853614973  0.7988144076049546  0.8873777923585889  1.0000
  C   C84       1.0  0.7234436149753901  0.2011855920995758  0.1126222072753048  1.0000
  C   C85       1.0  0.23048315476304362  0.7283396837302392  0.921543104137595  1.0000
  C   C86       1.0  0.7695168447026285  0.2716603165652722  0.07845689550048159  1.0000
  C   C87       1.0  0.07972945563728177  0.6884253041987192  0.9059130392485102  1.0000
  C   C88       1.0  0.920270545189828  0.3115746961921656  0.09408696092828356  1.0000
  C   C89       1.0  0.03838027907452638  0.6244285685831859  0.9399458992289478  1.0000
  C   C90       1.0  0.9616197215576574  0.3755714312193667  0.06005410094534156  1.0000
  C   C91       1.0  0.14779250046196227  0.5986030167033761  0.9887455390697348  1.0000
  C   C92       1.0  0.8522074990037098  0.4013969835921352  0.011254460568341652  1.0000
  C   C93       1.0  0.29857114123825246  0.6362585253104917  0.002785593042252795  1.0000
  C   C94       1.0  0.7014288583277901  0.3637414744947098  0.9972144071337149  1.0000
  C   C95       1.0  0.3397718286606078  0.7011856136534531  0.9700004966567359  1.0000
  C   C96       1.0  0.6602281711003607  0.29881438674008054  0.029999503521736248  1.0000
  N   N1        1.0  0.5117665747526097  0.8687590662835492  0.6629129063416859  1.0000
  N   N2        1.0  0.4882334250083588  0.13124093410998444  0.3370870938367862  1.0000
  N   N3        1.0  0.9757250295101058  0.12085708032044758  0.8345941325622603  1.0000
  N   N4        1.0  0.02427497131700396  0.8791429200704372  0.16540586761453316  1.0000
  N   N5        1.0  0.7602806436155689  0.8854933208741395  0.4271279051567659  1.0000
  N   N6        1.0  0.23971935672131847  0.11450667883039083  0.5728720944771278  1.0000
  N   N7        1.0  0.2629178639115847  0.878438991156368  0.9270482764530684  1.0000
  N   N8        1.0  0.7370821353591616  0.12156100855081108  0.07295172318250398  1.0000
  S   S1        1.0  0.5278308691353533  0.4954230242689929  0.8548829761597951  1.0000
  S   S2        1.0  0.4721691306256151  0.5045769761245408  0.14511702401867693  1.0000
  S   S3        1.0  0.9088309740291389  0.5058158747840961  0.6402844134440898  1.0000
  S   S4        1.0  0.09116902650267439  0.4941841255087665  0.35971558619230826  1.0000
  I   I1        1.0  0.5160838635867802  0.2990402671019716  0.8022330225772788  1.0000
  I   I2        1.0  0.4839161361741883  0.7009597332915619  0.19776697760119333  1.0000
  I   I3        1.0  0.6499727601389694  0.6924314576288773  0.8657167187812236  1.0000
  I   I4        1.0  0.35002724049321426  0.30756854217367535  0.1342832813930656  1.0000
  I   I5        1.0  0.9958360837929573  0.8960451714960417  0.7025151264693468  1.0000
  I   I6        1.0  0.0041639170341525  0.10395482889484317  0.29748487370744686  1.0000
  I   I7        1.0  0.9098648630919693  0.31313060214360794  0.6376981610424115  1.0000
  I   I8        1.0  0.09013513754021438  0.6868693976589446  0.36230183913187775  1.0000
  I   I9        1.0  0.015134684122943253  0.7018849462237645  0.6967485103585752  1.0000
  I   I10       1.0  0.9848653154430993  0.2981150535814369  0.3032514898173925  1.0000
  I   I11       1.0  0.7320363470770955  0.8895932033455108  0.9504325528523846  1.0000
  I   I12       1.0  0.26796365325979177  0.11040679635901951  0.04956744678150906  1.0000
  I   I13       1.0  0.7707761782911362  0.11558781561042239  0.5550917953867336  1.0000
  I   I14       1.0  0.22922382097961  0.8844121840967568  0.44490820424883876  1.0000
  I   I15       1.0  0.49151682780845274  0.09754545219937609  0.7970262079049371  1.0000
  I   I16       1.0  0.5084831714622934  0.9024545475078031  0.20297379173063518  1.0000
