data_image0
_chemical_formula_structural       H40C64N8S4I8
_chemical_formula_sum              "H40 C64 N8 S4 I8"
_cell_length_a       4.227172611991835
_cell_length_b       28.164506644683463
_cell_length_c       13.311332569397598
_cell_angle_alpha    90.0
_cell_angle_beta     94.90669589213059
_cell_angle_gamma    90.0

_space_group_name_H-M_alt    "P 1"
_space_group_IT_number       1

loop_
  _space_group_symop_operation_xyz
  'x, y, z'

loop_
  _atom_site_type_symbol
  _atom_site_label
  _atom_site_symmetry_multiplicity
  _atom_site_fract_x
  _atom_site_fract_y
  _atom_site_fract_z
  _atom_site_occupancy
  H   H1        1.0  0.4209253628407536  0.5950121605685361  0.4830821702487301  1.0000
  H   H2        1.0  0.07907463640332074  0.09501216065168092  0.01691782964673737  1.0000
  H   H3        1.0  0.579074635647395  0.40498783926517423  0.5169178295422049  1.0000
  H   H4        1.0  0.9209253644495996  0.9049878395370863  0.9830821701410244  1.0000
  H   H5        1.0  0.24500135700804454  0.5094434474217383  0.5373173659360042  1.0000
  H   H6        1.0  0.2549986419529736  0.009443447504883117  0.962682633902179  1.0000
  H   H7        1.0  0.7549986438448759  0.4905565524119721  0.4626826338517575  1.0000
  H   H8        1.0  0.7450013567482153  0.9905565523288272  0.037317366642752106  1.0000
  H   H9        1.0  0.15344693351431973  0.7781032686449281  0.47751496949939626  1.0000
  H   H10       1.0  0.3465530657297546  0.2781032687280729  0.02248503039607131  1.0000
  H   H11       1.0  0.8465530673386008  0.2218967311887823  0.5224850302883656  1.0000
  H   H12       1.0  0.6534469327583942  0.7218967311056375  0.9775149693948637  1.0000
  H   H13       1.0  0.9225721258701761  0.8401905340836816  0.3583942582652323  1.0000
  H   H14       1.0  0.5774278745098748  0.34019053416682643  0.14160574147528118  1.0000
  H   H15       1.0  0.07742787498274431  0.15980946575002877  0.6416057415225296  1.0000
  H   H16       1.0  0.42257212397827393  0.6598094660219408  0.8583942583156539  1.0000
  H   H17       1.0  0.07090474158538088  0.92502616746237  0.38385215179001825  1.0000
  H   H18       1.0  0.42909525765869344  0.4250261675455148  0.11614784810544926  1.0000
  H   H19       1.0  0.929095257115808  0.07497383272639717  0.6161478487549128  1.0000
  H   H20       1.0  0.570904743194227  0.5749738326432524  0.8838521516823123  1.0000
  H   H21       1.0  0.4598241063084668  0.948904422760229  0.5267325046350116  1.0000
  H   H22       1.0  0.040175895017323195  0.4489044228433739  0.9732674951999984  1.0000
  H   H23       1.0  0.5401758945444536  0.05109557742853811  0.4732674951527501  1.0000
  H   H24       1.0  0.9598241058355972  0.5510955773453933  0.026732504587763405  1.0000
  H   H25       1.0  0.8156059407787669  0.7365294855578728  0.7705308371960858  1.0000
  H   H26       1.0  0.6843940593182278  0.23652948528596068  0.7294691624871434  1.0000
  H   H27       1.0  0.18439405770938178  0.2634705146308945  0.22946916259484917  1.0000
  H   H28       1.0  0.31560594153469257  0.7634705145477497  0.2705308373006183  1.0000
  H   H29       1.0  0.2040931117131138  0.7606968820824088  0.9127456788283574  1.0000
  H   H30       1.0  0.2959068874609447  0.2606968821655537  0.5872543217638219  1.0000
  H   H31       1.0  0.795906889352847  0.23930311775130145  0.08725432171340036  1.0000
  H   H32       1.0  0.7040931112402442  0.7393031176681567  0.4127456787811093  1.0000
  H   H33       1.0  0.3820395721259704  0.8446057383536798  0.9308263183004526  1.0000
  H   H34       1.0  0.11796042683504776  0.34460573808176787  0.5691736815377306  1.0000
  H   H35       1.0  0.6179604265752187  0.15539426183508737  0.06917368224447856  1.0000
  H   H36       1.0  0.8820395716531009  0.6553942617519426  0.43082631825320433  1.0000
  H   H37       1.0  0.16067839153607966  0.9062145136072505  0.8090576774981014  1.0000
  H   H38       1.0  0.3393216100027505  0.40621451369039524  0.6909423230909044  1.0000
  H   H39       1.0  0.839321609529881  0.09378548622645991  0.19094232304365624  1.0000
  H   H40       1.0  0.6606783910632101  0.5937854861433152  0.30905767745085333  1.0000
  C   C1        1.0  0.22178575418667373  0.622497628351304  0.6167872993378793  1.0000
  C   C2        1.0  0.27821424713911624  0.12249762843444884  0.8832127004971306  1.0000
  C   C3        1.0  0.7782142466662467  0.3775023714824064  0.38321270044988237  1.0000
  C   C4        1.0  0.7217857537138042  0.8775023717543184  0.11678729929063113  1.0000
  C   C5        1.0  0.29657810414925206  0.5878198371752826  0.5496446371586279  1.0000
  C   C6        1.0  0.2034218971765379  0.08781983725842743  0.9503553626763822  1.0000
  C   C7        1.0  0.7034218967036683  0.4121801626584277  0.450355362629134  1.0000
  C   C8        1.0  0.7965781036763826  0.9121801629303398  0.04964463711137956  1.0000
  C   C9        1.0  0.202722201202194  0.5416816925809659  0.5791994596776653  1.0000
  C   C10       1.0  0.29727779797186454  0.04168169230905389  0.9208005409145141  1.0000
  C   C11       1.0  0.797277797498995  0.45831830760780135  0.420800540867266  1.0000
  C   C12       1.0  0.7027222030940962  0.9583183075246565  0.07919945962724365  1.0000
  C   C13       1.0  0.05735891219646744  0.5420018206809801  0.6681961392815376  1.0000
  C   C14       1.0  0.4426410891293225  0.04200182076412491  0.8318038605534722  1.0000
  C   C15       1.0  0.9426410886564529  0.4579981791527303  0.331803860506224  1.0000
  C   C16       1.0  0.5573589117235979  0.9579981790695855  0.16819613923428947  1.0000
  C   C17       1.0  0.436616274228643  0.8280449962862151  0.5690389755684415  1.0000
  C   C18       1.0  0.06338372473237516  0.32804499601430304  0.9309610242697417  1.0000
  C   C19       1.0  0.5633837242595056  0.1719550039025521  0.4309610242224935  1.0000
  C   C20       1.0  0.9366162737557735  0.6719550038194073  0.0690389755211933  1.0000
  C   C21       1.0  0.2166846050196617  0.8154851686115211  0.4862861176612083  1.0000
  C   C22       1.0  0.2833153965891844  0.31548516869466586  0.013713882231085904  1.0000
  C   C23       1.0  0.7833153958332587  0.18451483122218937  0.5137138821265534  1.0000
  C   C24       1.0  0.716684604263736  0.6845148311390445  0.9862861175566757  1.0000
  C   C25       1.0  0.09124131345446304  0.8498805444020948  0.4215956324296853  1.0000
  C   C26       1.0  0.4087586857896113  0.34988054448523964  0.07840436746578225  1.0000
  C   C27       1.0  0.9087586873984573  0.1501194554316156  0.5784043673580764  1.0000
  C   C28       1.0  0.5912413129115778  0.6501194557035276  0.9215956330791488  1.0000
  C   C29       1.0  0.17690418114357143  0.8984820532894657  0.4360205361254668  1.0000
  C   C30       1.0  0.3230958204652747  0.3984820533726105  0.06397946376682737  1.0000
  C   C31       1.0  0.823095819709349  0.10151794654424467  0.5639794636622949  1.0000
  C   C32       1.0  0.6769041803876457  0.6015179464610999  0.9360205360209343  1.0000
  C   C33       1.0  0.3897423253309508  0.9119830659220367  0.5144244574025267  1.0000
  C   C34       1.0  0.1102576762078795  0.41198306565012466  0.9855755431864793  1.0000
  C   C35       1.0  0.6102576757350099  0.08801693426673055  0.48557554313923107  1.0000
  C   C36       1.0  0.8897423248580812  0.5880169341835858  0.014424457355278513  1.0000
  C   C37       1.0  0.5268052099006143  0.8773575820709255  0.5829587101281335  1.0000
  C   C38       1.0  0.9731947904094207  0.37735758215407034  0.9170412903090919  1.0000
  C   C39       1.0  0.47319478858753433  0.12264241776278488  0.41704128966280163  1.0000
  C   C40       1.0  0.026805210656540086  0.6226424180346969  0.08295871023266592  1.0000
  C   C41       1.0  0.7638293196001883  0.8075341413549413  0.7097175038464288  1.0000
  C   C42       1.0  0.7361706804968066  0.30753414143808605  0.7902824958368003  1.0000
  C   C43       1.0  0.23617068125273222  0.19246585847876913  0.29028249594133293  1.0000
  C   C44       1.0  0.26382932035611384  0.6924658587506811  0.20971750395096128  1.0000
  C   C45       1.0  0.8925514648504789  0.7732563806194362  0.7805657108760216  1.0000
  C   C46       1.0  0.6074485352465159  0.2732563807025811  0.7194342888072076  1.0000
  C   C47       1.0  0.10744853600244152  0.2267436192142741  0.2194342889117401  1.0000
  C   C48       1.0  0.3925514656064046  0.7267436191311293  0.2805657109805541  1.0000
  C   C49       1.0  0.10739257032790578  0.7868822827110833  0.858250016840543  1.0000
  C   C50       1.0  0.3926074288461528  0.28688228279422817  0.6417499837516364  1.0000
  C   C51       1.0  0.8926074283732831  0.21311771712262703  0.14174998370438807  1.0000
  C   C52       1.0  0.607392572219808  0.7131177170394821  0.35825001679012153  1.0000
  C   C53       1.0  0.20775385554651438  0.8350178310131842  0.8690867255052677  1.0000
  C   C54       1.0  0.29224614341450383  0.335017831096329  0.6309132743329157  1.0000
  C   C55       1.0  0.7922461429416343  0.16498216917558303  0.13091327428566749  1.0000
  C   C56       1.0  0.7077538574384166  0.6649821690924382  0.36908672545484605  1.0000
  C   C57       1.0  0.08679740910178685  0.8691622622340851  0.8030224873628933  1.0000
  C   C58       1.0  0.41320258985923136  0.3691622623172298  0.69697751247529  1.0000
  C   C59       1.0  0.9132025893863618  0.13083773795468218  0.19697751242804176  1.0000
  C   C60       1.0  0.5867974086289173  0.6308377378715373  0.303022487315645  1.0000
  C   C61       1.0  0.8595200807651372  0.856713851387656  0.7221631390594353  1.0000
  C   C62       1.0  0.6404799195448979  0.356713851115744  0.7778368613777902  1.0000
  C   C63       1.0  0.14047991793605175  0.1432861488011112  0.27783686148549586  1.0000
  C   C64       1.0  0.3595200815210629  0.6432861487179663  0.22216313916396774  1.0000
  N   N1        1.0  0.5544239657384105  0.7942115398006608  0.6331246451903427  1.0000
  N   N2        1.0  0.9455760343585843  0.29421153988380566  0.8668753544928864  1.0000
  N   N3        1.0  0.44557603511451  0.2057884603881063  0.366875354597419  1.0000
  N   N4        1.0  0.05442396412956439  0.7057884603049616  0.13312464529804857  1.0000
  N   N5        1.0  0.736695882834746  0.8907033315542012  0.6593920280309385  1.0000
  N   N6        1.0  0.763304117475289  0.39070333163734605  0.8406079724062866  1.0000
  N   N7        1.0  0.26330411823121475  0.10929666827950914  0.3406079725108192  1.0000
  N   N8        1.0  0.23669588101285957  0.6092966685514212  0.1593920273846483  1.0000
  S   S1        1.0  0.03518686074317979  0.5987150931750154  0.7153960645616858  1.0000
  S   S2        1.0  0.46481313821783843  0.09871509325816018  0.7846039352764975  1.0000
  S   S3        1.0  0.9648131377449688  0.40128490665869504  0.2846039352292492  1.0000
  S   S4        1.0  0.535186862635082  0.9012849065755502  0.21539606451126428  1.0000
  I   I1        1.0  0.34416624997029144  0.694418003011315  0.6186624875926408  1.0000
  I   I2        1.0  0.1558337489907267  0.19441800309445967  0.8813375122455424  1.0000
  I   I3        1.0  0.6558337485178573  0.3055819968223955  0.38133751219829426  1.0000
  I   I4        1.0  0.8441662520752341  0.8055819967392508  0.11866248829621535  1.0000
  I   I5        1.0  0.8898708640997659  0.4840736936030653  0.7459785526389394  1.0000
  I   I6        1.0  0.6101291362102692  0.9840736935199205  0.754021447798286  1.0000
  I   I7        1.0  0.11012913675315451  0.5159263065857019  0.2540214471488223  1.0000
  I   I8        1.0  0.3898708648556916  0.01592630666884672  0.2459785527434719  1.0000
