data_image0
_chemical_formula_structural       H120C88N8S4I16
_chemical_formula_sum              "H120 C88 N8 S4 I16"
_cell_length_a       18.031571311321905
_cell_length_b       8.589512535630217
_cell_length_c       19.14921184986019
_cell_angle_alpha    90.0
_cell_angle_beta     116.58995792915354
_cell_angle_gamma    90.0

_space_group_name_H-M_alt    "P 1"
_space_group_IT_number       1

loop_
  _space_group_symop_operation_xyz
  'x, y, z'

loop_
  _atom_site_type_symbol
  _atom_site_label
  _atom_site_symmetry_multiplicity
  _atom_site_fract_x
  _atom_site_fract_y
  _atom_site_fract_z
  _atom_site_occupancy
  H   H1        1.0  0.6706789479054964  0.16650146490473317  0.68571216504978  1.0000
  H   H2        1.0  0.8293210524268442  0.6665014651591005  0.814287834919796  1.0000
  H   H3        1.0  0.3293210521321259  0.8334985344397913  0.3142878345406186  1.0000
  H   H4        1.0  0.1706789478866853  0.33349853534963425  0.18571216525458076  1.0000
  H   H5        1.0  0.6967662980484016  0.12584909743317438  0.5616807598879914  1.0000
  H   H6        1.0  0.8032337022839391  0.6258490976875417  0.9383192400815847  1.0000
  H   H7        1.0  0.30323370226512786  0.8741509030755604  0.4383192402863854  1.0000
  H   H8        1.0  0.19676629802959045  0.37415090282119295  0.061680760092792  1.0000
  H   H9        1.0  0.8972416984486895  0.9525923276855269  0.6073403403210458  1.0000
  H   H10       1.0  0.6027583018836512  0.4525923274311595  0.8926596596485303  1.0000
  H   H11       1.0  0.10275830186483999  0.04740767165899746  0.3926596598533309  1.0000
  H   H12       1.0  0.39724169815397115  0.5474076719133648  0.1073403399418684  1.0000
  H   H13       1.0  0.8515234999901948  0.01148283439727972  0.7064717243012905  1.0000
  H   H14       1.0  0.6484765003421459  0.5114828346516471  0.7935282756682855  1.0000
  H   H15       1.0  0.1484765003233348  0.9885171649472447  0.2935282758730863  1.0000
  H   H16       1.0  0.35152349969547636  0.48851716585708765  0.20647172392211308  1.0000
  H   H17       1.0  0.9255193066460254  0.9008685123750457  0.8403727220084962  1.0000
  H   H18       1.0  0.5744806931308918  0.40086851212067837  0.6596272779593063  1.0000
  H   H19       1.0  0.07448069311208066  0.09913148813368904  0.1596272781641069  1.0000
  H   H20       1.0  0.42551930690673045  0.599131487223846  0.34037272163109245  1.0000
  H   H21       1.0  0.04883098050984026  0.7277575350253978  0.8731073553015254  1.0000
  H   H22       1.0  0.45116901982442753  0.22775753477103033  0.6268926451014646  1.0000
  H   H23       1.0  0.9511690192482659  0.272242465483337  0.1268926448710777  1.0000
  H   H24       1.0  0.5488309804891021  0.7722424657377044  0.3731073550729122  1.0000
  H   H25       1.0  0.09563680940384701  0.6678188356097591  0.7742663952626622  1.0000
  H   H26       1.0  0.40436319093042067  0.16781883535539166  0.7257336051403276  1.0000
  H   H27       1.0  0.9043631909096824  0.3321811648989757  0.22573360491171454  1.0000
  H   H28       1.0  0.5956368093831088  0.8321811651533431  0.2742663950340491  1.0000
  H   H29       1.0  0.9160734307675313  0.6573139007108685  0.5416440058377069  1.0000
  H   H30       1.0  0.5839265695648094  0.1573139016207115  0.9583559941318692  1.0000
  H   H31       1.0  0.08392656954599817  0.3426860986336559  0.45835599433666985  1.0000
  H   H32       1.0  0.41607343074872016  0.8426860988880233  0.04164400604250754  1.0000
  H   H33       1.0  0.9834485631418104  0.7271824546608824  0.5018108790273029  1.0000
  H   H34       1.0  0.5165514366351069  0.2271824544065149  0.9981891209404995  1.0000
  H   H35       1.0  0.016551436616295725  0.27281754468364205  0.4981891211453002  1.0000
  H   H36       1.0  0.4834485634025154  0.7728175449380094  0.0018108786498991373  1.0000
  H   H37       1.0  0.9220028466149407  0.8620742550038909  0.5245438316746898  1.0000
  H   H38       1.0  0.5779971537173998  0.3620742559137339  0.9754561682948862  1.0000
  H   H39       1.0  0.07799715369858871  0.13792574434063354  0.4754561684996871  1.0000
  H   H40       1.0  0.42200284659612963  0.637925744595001  0.024543831879490417  1.0000
  H   H41       1.0  0.13417251117582005  0.6306984147852488  0.6932911406370033  1.0000
  H   H42       1.0  0.3658274883271171  0.13069841453088138  0.8067088591802349  1.0000
  H   H43       1.0  0.8658274883063788  0.369301585723486  0.3067088589516217  1.0000
  H   H44       1.0  0.6341725114309891  0.8693015848136431  0.19329114099236822  1.0000
  H   H45       1.0  0.09435423612032905  0.6063483880366524  0.5901088435750804  1.0000
  H   H46       1.0  0.4056457639380316  0.10634838778228496  0.9098911562439315  1.0000
  H   H47       1.0  0.9056457641932004  0.3936516124720824  0.4098911565992963  1.0000
  H   H48       1.0  0.5943542360995907  0.8936516127264498  0.09010884334646728  1.0000
  H   H49       1.0  0.038846436640469356  0.5220251837808175  0.6385513962645291  1.0000
  H   H50       1.0  0.46115356369379834  0.022025183526450182  0.8614486041384608  1.0000
  H   H51       1.0  0.9611535636730603  0.47797481672791714  0.36144860390984773  1.0000
  H   H52       1.0  0.5388464366197311  0.9779748158180741  0.1385513960359159  1.0000
  H   H53       1.0  0.04432220179075112  0.010018858421013523  0.611368353087998  1.0000
  H   H54       1.0  0.4556777985435166  0.5100188586753809  0.8886316473149918  1.0000
  H   H55       1.0  0.9556777979673551  0.9899811409235109  0.38863164708460507  1.0000
  H   H56       1.0  0.5443222017700129  0.4899811418333539  0.11136835285938489  1.0000
  H   H57       1.0  0.10241592752490636  0.8826164801031704  0.5791688855594352  1.0000
  H   H58       1.0  0.3975840728093613  0.3826164810130135  0.9208311148435545  1.0000
  H   H59       1.0  0.8975840727886231  0.11738351924135391  0.4208311146149415  1.0000
  H   H60       1.0  0.6024159275041682  0.6173835194957213  0.07916888533082213  1.0000
  H   H61       1.0  0.13424637724616437  0.9087853469704807  0.6820132620567207  1.0000
  H   H62       1.0  0.3657536222567728  0.4087853467161134  0.8179867377605174  1.0000
  H   H63       1.0  0.8657536222360346  0.09121465353825403  0.3179867375319043  1.0000
  H   H64       1.0  0.6342463775013333  0.591214652628411  0.1820132624120857  1.0000
  H   H65       1.0  0.32784835241793053  0.53128777227696  0.5394528986499101  1.0000
  H   H66       1.0  0.1721516470850067  0.031287772022592655  0.9605471011673282  1.0000
  H   H67       1.0  0.6721516470642684  0.4687122282317748  0.4605471009387149  1.0000
  H   H68       1.0  0.8278483526730994  0.968712228486142  0.039452899005274995  1.0000
  H   H69       1.0  0.39064573873832875  0.5235956570694987  0.4498444282828344  1.0000
  H   H70       1.0  0.1093542615563896  0.023595657979341853  0.050155572096343026  1.0000
  H   H71       1.0  0.6093542610197774  0.47640434227502554  0.5501555718897687  1.0000
  H   H72       1.0  0.8906457387571399  0.9764043425293929  0.9498444280780338  1.0000
  H   H73       1.0  0.4982086840839836  0.7198956383554902  0.4611713079300296  1.0000
  H   H74       1.0  0.001791315379404201  0.21989563810112284  0.038828691863396096  1.0000
  H   H75       1.0  0.5017913153982153  0.2801043621532445  0.5388286916585954  1.0000
  H   H76       1.0  0.9982086843787019  0.7801043624076119  0.961171308309207  1.0000
  H   H77       1.0  0.5384580711097515  0.9270870840420439  0.5620072855432298  1.0000
  H   H78       1.0  0.9615419286671657  0.4270870837876765  0.9379927144245725  1.0000
  H   H79       1.0  0.46154192920377796  0.07291291646669086  0.437992714631147  1.0000
  H   H80       1.0  0.03845807109094037  0.5729129167210583  0.06200728574803043  1.0000
  H   H81       1.0  0.47738945168173796  0.9352665575230551  0.6534521357516095  1.0000
  H   H82       1.0  0.02261054837662258  0.4352665572686877  0.8465478640674021  1.0000
  H   H83       1.0  0.5226105486317915  0.06473344298567975  0.34654786442276714  1.0000
  H   H84       1.0  0.9773894516609998  0.5647334432400472  0.15345213552299647  1.0000
  H   H85       1.0  0.346916134543915  0.9812661923522753  0.6507383208510906  1.0000
  H   H86       1.0  0.15308386579035269  0.4812661920979079  0.8492616795518991  1.0000
  H   H87       1.0  0.6530838657696144  0.018733808156459444  0.3492616793232861  1.0000
  H   H88       1.0  0.8469161345231768  0.5187338072466164  0.15073832062247752  1.0000
  H   H89       1.0  0.2904100369119758  0.8807207077956672  0.6941680734966051  1.0000
  H   H90       1.0  0.20958996259096138  0.3807207075412998  0.805831926320633  1.0000
  H   H91       1.0  0.7095899625702231  0.11927929271306759  0.3058319260920199  1.0000
  H   H92       1.0  0.7904100371671448  0.6192792918032245  0.19416807385197002  1.0000
  H   H93       1.0  0.2581342273121519  0.8676100767170274  0.5902803282618583  1.0000
  H   H94       1.0  0.2418657721907853  0.36761007646266  0.9097196715553799  1.0000
  H   H95       1.0  0.7418657724459542  0.13238992379170744  0.4097196719107447  1.0000
  H   H96       1.0  0.7581342272914137  0.6323899240460747  0.09028032803324525  1.0000
  H   H97       1.0  0.2938779276484849  0.6067911104826847  0.7030551477979079  1.0000
  H   H98       1.0  0.2061220718544523  0.10679111022831735  0.7969448520193303  1.0000
  H   H99       1.0  0.7061220721096212  0.39320889002605003  0.2969448523746952  1.0000
  H   H100      1.0  0.7938779276277467  0.893208889116207  0.20305514756929474  1.0000
  H   H101      1.0  0.35073324130287603  0.49053386353674583  0.6656049206759895  1.0000
  H   H102      1.0  0.1492667587554845  0.9905338637911132  0.8343950791430224  1.0000
  H   H103      1.0  0.6492667581793229  0.509466136971989  0.3343950789126356  1.0000
  H   H104      1.0  0.850733241558045  0.009466136717621577  0.1656049210313544  1.0000
  H   H105      1.0  0.2586090165458958  0.5934420782152108  0.5996049861701886  1.0000
  H   H106      1.0  0.24139098351246485  0.09344207796084336  0.9003950136488232  1.0000
  H   H107      1.0  0.7413909837676338  0.40655792229352405  0.40039501400418814  1.0000
  H   H108      1.0  0.7586090165251576  0.9065579225478915  0.09960498594157552  1.0000
  H   H109      1.0  0.4709581081667875  0.8480754373176462  0.7518139953320264  1.0000
  H   H110      1.0  0.029041891336149612  0.34807543822748926  0.7481860044852117  1.0000
  H   H111      1.0  0.5290418915913185  0.15192456202687812  0.2481860048405766  1.0000
  H   H112      1.0  0.9709581081460493  0.6519245622812455  0.25181399510341335  1.0000
  H   H113      1.0  0.4753905846807735  0.6407154349180085  0.7514421918962629  1.0000
  H   H114      1.0  0.024609415653494213  0.14071543466364111  0.7485578085067269  1.0000
  H   H115      1.0  0.5246094156327559  0.35928456442651585  0.24855780827811372  1.0000
  H   H116      1.0  0.9753905846600354  0.8592845646808832  0.25144219166764986  1.0000
  H   H117      1.0  0.4076516194507958  0.737877506285632  0.784240967729574  1.0000
  H   H118      1.0  0.09234838060756463  0.23787750719547507  0.7157590320894377  1.0000
  H   H119      1.0  0.5923483803073103  0.26212249305889235  0.21575903244302905  1.0000
  H   H120      1.0  0.9076516194300576  0.7621224933132598  0.28424096750096095  1.0000
  C   C1        1.0  0.683051602200524  0.9160296917155268  0.7037555621572894  1.0000
  C   C2        1.0  0.8169483975763933  0.4160296914611594  0.7962444378105129  1.0000
  C   C3        1.0  0.31694839728167495  0.08397030879320797  0.2962444374313356  1.0000
  C   C4        1.0  0.18305160218171282  0.5839703090475754  0.20375556236209008  1.0000
  C   C5        1.0  0.6810173001433529  0.053706467984816014  0.6658179377536679  1.0000
  C   C6        1.0  0.8189826996335643  0.5537064682391833  0.8341820622141345  1.0000
  C   C7        1.0  0.3189826996147531  0.9462935325239188  0.33418206241893517  1.0000
  C   C8        1.0  0.18101730040405806  0.4462935322695514  0.16581793737626419  1.0000
  C   C9        1.0  0.6936237605753371  0.03162830473476541  0.5982116628122967  1.0000
  C   C10       1.0  0.8063762392015801  0.5316283049891328  0.9017883371555058  1.0000
  C   C11       1.0  0.3063762389068618  0.9683716957739694  0.4017883367763284  1.0000
  C   C12       1.0  0.19362376111194937  0.468371695519602  0.09821166301887091  1.0000
  C   C13       1.0  0.7040071443460688  0.8771161528373307  0.5851987410713574  1.0000
  C   C14       1.0  0.7959928559862718  0.3771161525829632  0.9148012588982186  1.0000
  C   C15       1.0  0.29599285596746067  0.12288384767140417  0.41480125910301935  1.0000
  C   C16       1.0  0.2040071443272577  0.622883846761561  0.0851987412761581  1.0000
  C   C17       1.0  0.9968542479881118  0.7979873620962235  0.682623551207862  1.0000
  C   C18       1.0  0.5031457523442288  0.2979873618418561  0.8173764487617139  1.0000
  C   C19       1.0  0.003145752325417609  0.2020126384125113  0.3173764489665146  1.0000
  C   C20       1.0  0.49685424769339354  0.7020126386668787  0.1826235508286847  1.0000
  C   C21       1.0  0.9294884258506156  0.8973770930569412  0.6642427199376364  1.0000
  C   C22       1.0  0.5705115744817251  0.3973770928025739  0.8357572800319397  1.0000
  C   C23       1.0  0.07051157446291388  0.1026229062875831  0.3357572802367404  1.0000
  C   C24       1.0  0.42948842583180447  0.6026229065419505  0.16424272014243704  1.0000
  C   C25       1.0  0.9038097652958671  0.9329217143300971  0.721215456481794  1.0000
  C   C26       1.0  0.5961902344810501  0.4329217140757296  0.7787845434860085  1.0000
  C   C27       1.0  0.09619023446223897  0.06707828501442734  0.27878454369080913  1.0000
  C   C28       1.0  0.4038097655565722  0.5670782852687947  0.22121545610439017  1.0000
  C   C29       1.0  0.94554795195911  0.8709771793180224  0.7961527988196156  1.0000
  C   C30       1.0  0.5544520483732307  0.37097717906365496  0.7038472011499604  1.0000
  C   C31       1.0  0.054452048354419635  0.12902282002650198  0.20384720135476106  1.0000
  C   C32       1.0  0.4455479519402987  0.6290228202808693  0.2961527990244163  1.0000
  C   C33       1.0  0.013622589088002113  0.7737133710943928  0.8142577730439317  1.0000
  C   C34       1.0  0.48637741097035836  0.2737133720042358  0.6857422267750801  1.0000
  C   C35       1.0  0.9863774103941968  0.2262866282501316  0.18574222654469333  1.0000
  C   C36       1.0  0.5136225893431712  0.726286628504499  0.31425777339929667  1.0000
  C   C37       1.0  0.03983570494089938  0.737151674642202  0.7577144419350408  1.0000
  C   C38       1.0  0.46016429511746115  0.23715167555204497  0.7422855578839711  1.0000
  C   C39       1.0  0.9601642950967229  0.26284832470232244  0.24228555765535795  1.0000
  C   C40       1.0  0.539835704640645  0.7628483249566897  0.257714442288632  1.0000
  C   C41       1.0  0.9563748261236689  0.7527026700503714  0.5416487859481185  1.0000
  C   C42       1.0  0.5436251736532483  0.2527026709602145  0.9583512140196839  1.0000
  C   C43       1.0  0.04362517363443719  0.2472973292941529  0.45835121422448455  1.0000
  C   C44       1.0  0.456374826384374  0.7472973295485204  0.041648785570714775  1.0000
  C   C45       1.0  0.07755933881140102  0.620014828304719  0.6381838372353009  1.0000
  C   C46       1.0  0.4224406606915362  0.1200148280503516  0.8618161625819373  1.0000
  C   C47       1.0  0.9224406609467052  0.3799851722040158  0.36181616293730223  1.0000
  C   C48       1.0  0.5775593387906628  0.8799851724583833  0.13818383700668777  1.0000
  C   C49       1.0  0.08130640881483119  0.9032923484092372  0.6239598873332035  1.0000
  C   C50       1.0  0.4186935915194365  0.40329234815486986  0.8760401130697864  1.0000
  C   C51       1.0  0.918693590943275  0.09670765093528713  0.37604011283939953  1.0000
  C   C52       1.0  0.5813064087940929  0.5967076511896545  0.12395988710459044  1.0000
  C   C53       1.0  0.3993557825136937  0.7321714036637789  0.6034835369835471  1.0000
  C   C54       1.0  0.1006442169892435  0.23217140457362193  0.8965164628336911  1.0000
  C   C55       1.0  0.6006442169685052  0.26782859568074546  0.396516462605078  1.0000
  C   C56       1.0  0.8993557827688626  0.7678285959351129  0.10348353733891198  1.0000
  C   C57       1.0  0.3743105603178691  0.6180421354505305  0.5458346875828488  1.0000
  C   C58       1.0  0.12568944001639865  0.11804213636037356  0.954165312820141  1.0000
  C   C59       1.0  0.6256894399956604  0.38195786389399383  0.45416531259152804  1.0000
  C   C60       1.0  0.8743105597417073  0.8819578641483612  0.04583468735246196  1.0000
  C   C61       1.0  0.4100660357983053  0.6141347658692208  0.49443075468513953  1.0000
  C   C62       1.0  0.08993396449641304  0.11413476561485342  0.005569245694037917  1.0000
  C   C63       1.0  0.5899339645152241  0.385865234639514  0.5055692454892372  1.0000
  C   C64       1.0  0.9100660358171164  0.8858652348938814  0.9944307544803388  1.0000
  C   C65       1.0  0.4694387823625068  0.7239740677022878  0.5004300169931163  1.0000
  C   C66       1.0  0.030561217695853776  0.22397406861213082  0.9995699828258956  1.0000
  C   C67       1.0  0.5305612171196922  0.27602593164223654  0.4995699825955087  1.0000
  C   C68       1.0  0.9694387826176757  0.776025931896604  0.00043001734848118427  1.0000
  C   C69       1.0  0.49233972717528596  0.8403724111301252  0.5571052319268788  1.0000
  C   C70       1.0  0.007660273158981792  0.3403724108757578  0.9428947684761112  1.0000
  C   C71       1.0  0.5076602731382436  0.15962758937860963  0.44289476824749796  1.0000
  C   C72       1.0  0.9923397271545477  0.6596275896329771  0.057105231698265674  1.0000
  C   C73       1.0  0.4573657335338255  0.8450599996088636  0.6088258231074809  1.0000
  C   C74       1.0  0.04263426596911166  0.34505999935449627  0.8911741767097573  1.0000
  C   C75       1.0  0.5426342659483734  0.15494000089987112  0.39117417648114416  1.0000
  C   C76       1.0  0.9573657337889945  0.6549400011542386  0.10882582346284585  1.0000
  C   C77       1.0  0.3109894681217252  0.8774601770165541  0.6482985264861034  1.0000
  C   C78       1.0  0.18901053138121204  0.37746017792639713  0.8517014733311348  1.0000
  C   C79       1.0  0.6890105313604737  0.12253982232797024  0.35170147310252164  1.0000
  C   C80       1.0  0.8109894683768941  0.6225398225823376  0.14829852684146835  1.0000
  C   C81       1.0  0.3132620994806737  0.5954042873545637  0.656612012438539  1.0000
  C   C82       1.0  0.18673790085359415  0.09540428710019627  0.843387987964451  1.0000
  C   C83       1.0  0.6867379008328558  0.40459571315417114  0.34338798773583784  1.0000
  C   C84       1.0  0.8132620994599353  0.9045957134085385  0.15661201220992577  1.0000
  C   C85       1.0  0.43514295210990966  0.7412076696541987  0.7434454387965213  1.0000
  C   C86       1.0  0.06485704794845079  0.2412076693998313  0.7565545610224904  1.0000
  C   C87       1.0  0.5648570482036198  0.2587923296903256  0.25655456137785543  1.0000
  C   C88       1.0  0.9351429520891715  0.758792329944693  0.24344543856790818  1.0000
  N   N1        1.0  0.027264571131811577  0.7675957515226152  0.6225717233844162  1.0000
  N   N2        1.0  0.4727354289265491  0.26759575243245826  0.8774282764345956  1.0000
  N   N3        1.0  0.972735429181718  0.23240424782190916  0.3774282767899606  1.0000
  N   N4        1.0  0.5272645711110733  0.7324042480762766  0.12257172315580302  1.0000
  N   N5        1.0  0.36512293631248327  0.7360350909059055  0.6617659742586857  1.0000
  N   N6        1.0  0.1348770640217845  0.236035090651538  0.8382340261443043  1.0000
  N   N7        1.0  0.6348770634456229  0.2639649096028294  0.33823402591391744  1.0000
  N   N8        1.0  0.8651229362917451  0.7639649098571968  0.16176597403007253  1.0000
  S   S1        1.0  0.7003217951777961  0.759042278936687  0.6564446319791837  1.0000
  S   S2        1.0  0.7996782045991212  0.2590422786823196  0.8435553679886187  1.0000
  S   S3        1.0  0.2996782043044028  0.2409577215720478  0.3435553676094413  1.0000
  S   S4        1.0  0.20032179571440833  0.7409577206622048  0.15644463218575802  1.0000
  I   I1        1.0  0.662058657401712  0.882845472143387  0.8026832128337316  1.0000
  I   I2        1.0  0.8379413429306286  0.3828454718890197  0.6973167871358446  1.0000
  I   I3        1.0  0.3379413429118175  0.11715452720113731  0.1973167873406452  1.0000
  I   I4        1.0  0.16205865738290087  0.6171545274555047  0.30268321303853224  1.0000
  I   I5        1.0  0.7292268066208593  0.7953297700727752  0.4944868851554171  1.0000
  I   I6        1.0  0.7707731936719321  0.2953297709826182  0.005513114790346444  1.0000
  I   I7        1.0  0.2707731936926702  0.2046702292717492  0.5055131150189596  1.0000
  I   I8        1.0  0.22922680664159747  0.7046702295261166  0.9944868853840302  1.0000
  I   I9        1.0  0.6160299640962863  0.7896637488872751  0.9508518582879828  1.0000
  I   I10       1.0  0.8839700362360542  0.2896637486329076  0.5491481416815932  1.0000
  I   I11       1.0  0.3839700362172431  0.21033625162145975  0.04914814188639391  1.0000
  I   I12       1.0  0.11602996380156805  0.7103362507116167  0.45085185790880544  1.0000
  I   I13       1.0  0.21737719311286569  0.24637341539716742  0.6593338546363313  1.0000
  I   I14       1.0  0.28262280694549485  0.7463734156515348  0.8406661451826805  1.0000
  I   I15       1.0  0.7826228069247567  0.7536265839473569  0.3406661449540674  1.0000
  I   I16       1.0  0.7173771933680346  0.25362658485719997  0.15933385499169625  1.0000
