data_image0
_chemical_formula_structural       H96C96N16S8Cl8I24
_chemical_formula_sum              "H96 C96 N16 S8 Cl8 I24"
_cell_length_a       13.698799238213494
_cell_length_b       13.427583512892392
_cell_length_c       19.591576945085947
_cell_angle_alpha    90.0
_cell_angle_beta     91.45389485554838
_cell_angle_gamma    90.0

_space_group_name_H-M_alt    "P 1"
_space_group_IT_number       1

loop_
  _space_group_symop_operation_xyz
  'x, y, z'

loop_
  _atom_site_type_symbol
  _atom_site_label
  _atom_site_symmetry_multiplicity
  _atom_site_fract_x
  _atom_site_fract_y
  _atom_site_fract_z
  _atom_site_occupancy
  H   H1        1.0  0.40084218148602035  0.6475884496753296  0.20231194281432216  1.0000
  H   H2        1.0  0.09915781804319598  0.6475884496753296  0.29768805727703174  1.0000
  H   H3        1.0  0.5991578183024187  0.3524115501092637  0.7976880573688149  1.0000
  H   H4        1.0  0.900842181727329  0.3524115501092637  0.7023119423955175  1.0000
  H   H5        1.0  0.40304664061580436  0.8434627354300755  0.202633134369592  1.0000
  H   H6        1.0  0.09695335964341825  0.8434627354300755  0.2973668657221911  1.0000
  H   H7        1.0  0.5969533591726347  0.15653726435451773  0.797366865813545  1.0000
  H   H8        1.0  0.9030466408750271  0.15653726435451773  0.7026331344613751  1.0000
  H   H9        1.0  0.8994762570891747  0.9135232432717697  0.2013060039780074  1.0000
  H   H10       1.0  0.6005237432914425  0.9135232432717697  0.2986939958421611  1.0000
  H   H11       1.0  0.10052374268135031  0.08647675651282362  0.7986939956945419  1.0000
  H   H12       1.0  0.39947625722700286  0.08647675651282362  0.7013060043414051  1.0000
  H   H13       1.0  0.8967911751026688  0.10944020482829649  0.2053304676398925  1.0000
  H   H14       1.0  0.6032088245658561  0.10944020482829649  0.29466953269043444  1.0000
  H   H15       1.0  0.1032088246857702  0.8905597949562969  0.7946695325432445  1.0000
  H   H16       1.0  0.3967911752225829  0.8905597949562969  0.7053304674927026  1.0000
  H   H17       1.0  0.6234334404214567  0.5747444454611039  0.5252875596144179  1.0000
  H   H18       1.0  0.876566559608291  0.5747444454611039  0.9747124401499144  1.0000
  H   H19       1.0  0.37656655936698236  0.4252555543234893  0.4747124405687191  1.0000
  H   H20       1.0  0.123433440162234  0.4252555543234893  0.025287559522634787  1.0000
  H   H21       1.0  0.6085938563071065  0.7404102741535243  0.4675076104646808  1.0000
  H   H22       1.0  0.8914061433435043  0.7404102741535243  0.03249238935505853  1.0000
  H   H23       1.0  0.3914061434813325  0.2595897263758045  0.5324923897184562  1.0000
  H   H24       1.0  0.10859385642702062  0.2595897263758045  0.9675076103174908  1.0000
  H   H25       1.0  0.5993198736928941  0.7462246665886962  0.33946654748114596  1.0000
  H   H26       1.0  0.900680125975631  0.7462246665886962  0.16053345284918094  1.0000
  H   H27       1.0  0.400680126095545  0.2537753339406327  0.660533452701991  1.0000
  H   H28       1.0  0.09931987381280816  0.2537753339406327  0.839466547333956  1.0000
  H   H29       1.0  0.6042566373267899  0.585028951967238  0.2740721886113218  1.0000
  H   H30       1.0  0.8957433623238211  0.585028951967238  0.22592781120841746  1.0000
  H   H31       1.0  0.3957433624437352  0.41497104781735533  0.7259278110612275  1.0000
  H   H32       1.0  0.10425663746461797  0.41497104781735533  0.7740721889747194  1.0000
  H   H33       1.0  0.6050069011679852  0.42843396762168423  0.26661278228344715  1.0000
  H   H34       1.0  0.8949930985005398  0.42843396762168423  0.2333872180468798  1.0000
  H   H35       1.0  0.3949930986204539  0.5715660321629091  0.7333872178996899  1.0000
  H   H36       1.0  0.10500690128789922  0.5715660321629091  0.7666127821362573  1.0000
  H   H37       1.0  0.557041341603685  0.3571858201734527  0.33618396387054367  1.0000
  H   H38       1.0  0.9429586580469258  0.3571858201734527  0.1638160359491956  1.0000
  H   H39       1.0  0.44295865818475394  0.6428141796111406  0.6638160363125933  1.0000
  H   H40       1.0  0.057041341723599134  0.6428141796111406  0.8361839637233537  1.0000
  H   H41       1.0  0.6868777148165268  0.37075399421050664  0.3274111024919591  1.0000
  H   H42       1.0  0.8131222848340841  0.37075399421050664  0.17258889732778018  1.0000
  H   H43       1.0  0.31312228495399824  0.6292460055740866  0.6725888971805903  1.0000
  H   H44       1.0  0.1868777149364409  0.6292460055740866  0.8274111023447691  1.0000
  H   H45       1.0  0.11948259779266207  0.15684269980357393  0.5227685428544464  1.0000
  H   H46       1.0  0.3805174021156911  0.15684269980357393  0.9772314571815006  1.0000
  H   H47       1.0  0.8805174019957769  0.8431572999810193  0.47723145732869066  1.0000
  H   H48       1.0  0.6194825976727479  0.8431572999810193  0.022768543001636273  1.0000
  H   H49       1.0  0.10646859906893939  0.9939176358267312  0.45752300545039704  1.0000
  H   H50       1.0  0.393531400460277  0.9939176358267312  0.042476994640956854  1.0000
  H   H51       1.0  0.8935314007194997  0.006082364702597737  0.5424769947327399  1.0000
  H   H52       1.0  0.6064685993281621  0.006082364702597737  0.95752300554218  1.0000
  H   H53       1.0  0.0989725294262949  0.0008224845512519962  0.3296606773009664  1.0000
  H   H54       1.0  0.4010274708329278  0.0008224845512519962  0.1703393227908167  1.0000
  H   H55       1.0  0.9010274710742364  0.999177515978077  0.6703393223720122  1.0000
  H   H56       1.0  0.5989725289555113  0.999177515978077  0.8296606773923202  1.0000
  H   H57       1.0  0.10592260461489646  0.16647896010877072  0.27147430402000167  1.0000
  H   H58       1.0  0.3940773956443262  0.16647896010877072  0.22852569607178136  1.0000
  H   H59       1.0  0.894077395903549  0.8335210396758227  0.7285256961635644  1.0000
  H   H60       1.0  0.6059226041441128  0.8335210396758227  0.7714743041113555  1.0000
  H   H61       1.0  0.11301687149358328  0.32317512721730607  0.27049373168459473  1.0000
  H   H62       1.0  0.3869831287656394  0.32317512721730607  0.2295062684071884  1.0000
  H   H63       1.0  0.8869831290069481  0.6768248725672873  0.7295062679883839  1.0000
  H   H64       1.0  0.6130168710227997  0.6768248725672873  0.7704937317759486  1.0000
  H   H65       1.0  0.18537947868008392  0.3787032450863262  0.3378089016892976  1.0000
  H   H66       1.0  0.3146205215791387  0.3787032450863262  0.16219109840248544  1.0000
  H   H67       1.0  0.8146205218383614  0.6212967554430028  0.6621910984942686  1.0000
  H   H68       1.0  0.6853794782093002  0.6212967554430028  0.8378089017806516  1.0000
  H   H69       1.0  0.05435491432350188  0.38615649681281217  0.3396058608908507  1.0000
  H   H70       1.0  0.4456450859357208  0.38615649681281217  0.16039413920093237  1.0000
  H   H71       1.0  0.9456450861949435  0.6138435037165167  0.6603941392927154  1.0000
  H   H72       1.0  0.5543549138527183  0.6138435037165167  0.8396058609822047  1.0000
  H   H73       1.0  0.6856539073244945  0.1306612681511505  0.44788009643607074  1.0000
  H   H74       1.0  0.8143460930561227  0.1306612681511505  0.0521199033840978  1.0000
  H   H75       1.0  0.31434609319395085  0.8693387316334428  0.5521199037474954  1.0000
  H   H76       1.0  0.18565390671440224  0.8693387316334428  0.9478800962884517  1.0000
  H   H77       1.0  0.6023795669968216  0.11210003486887737  0.5158274138635767  1.0000
  H   H78       1.0  0.8976204330508402  0.11210003486887737  0.9841725864113434  1.0000
  H   H79       1.0  0.3976204327916176  0.887899964915716  0.48417258631956034  1.0000
  H   H80       1.0  0.10237956673759885  0.887899964915716  0.015827413771793586  1.0000
  H   H81       1.0  0.5558546249627466  0.14073372086538177  0.4321229105466165  1.0000
  H   H82       1.0  0.9441453746878642  0.14073372086538177  0.06787708927312276  1.0000
  H   H83       1.0  0.4441453748256924  0.8592662789192116  0.5678770896365205  1.0000
  H   H84       1.0  0.05585462508266072  0.8592662789192116  0.9321229103994266  1.0000
  H   H85       1.0  0.049964923807020827  0.6038650008927322  0.42461532850104383  1.0000
  H   H86       1.0  0.45003507645220187  0.6038650008927322  0.07538467159073928  1.0000
  H   H87       1.0  0.9500350759814182  0.3961349988918611  0.5753846716820932  1.0000
  H   H88       1.0  0.5499649240662435  0.3961349988918611  0.9246153285928269  1.0000
  H   H89       1.0  0.1230856523425291  0.6037297434952819  0.5015832587622063  1.0000
  H   H90       1.0  0.376914347565824  0.6037297434952819  0.9984167412737406  1.0000
  H   H91       1.0  0.8769143481759162  0.3962702562893114  0.49841674142135994  1.0000
  H   H92       1.0  0.623085652222615  0.3962702562893114  0.0015832589093962889  1.0000
  H   H93       1.0  0.18061333599007207  0.6087989541938894  0.4204974256322947  1.0000
  H   H94       1.0  0.31938666426915063  0.6087989541938894  0.07950257445948843  1.0000
  H   H95       1.0  0.8193866637983669  0.3912010463354395  0.5795025745508423  1.0000
  H   H96       1.0  0.6806133362313807  0.3912010463354395  0.92049742521349  1.0000
  C   C1        1.0  0.36344949548894945  0.6533285487725348  0.30941368935275404  1.0000
  C   C2        1.0  0.13655050402235286  0.6533285487725348  0.1905863102280122  1.0000
  C   C3        1.0  0.6365505042815754  0.3466714510120586  0.6905863103197952  1.0000
  C   C4        1.0  0.8634494957481721  0.3466714510120586  0.8094136894445372  1.0000
  C   C5        1.0  0.38545970803398594  0.6928906613067781  0.2468143141531339  1.0000
  C   C6        1.0  0.11454029222523673  0.6928906613067781  0.25318568593864915  1.0000
  C   C7        1.0  0.6145402917544531  0.3071093384778152  0.753185686030003  1.0000
  C   C8        1.0  0.8854597082932086  0.3071093384778152  0.746814314244917  1.0000
  C   C9        1.0  0.38717409971123684  0.7989361637333926  0.24735433939331633  1.0000
  C   C10       1.0  0.11282589980006545  0.7989361637333926  0.25264566018744994  1.0000
  C   C11       1.0  0.612825900059288  0.2010638360512006  0.752645660279233  1.0000
  C   C12       1.0  0.8871740999704595  0.2010638360512006  0.7473543394850994  1.0000
  C   C13       1.0  0.36675131312856396  0.838298835318531  0.3103737765752753  1.0000
  C   C14       1.0  0.13324868638273832  0.838298835318531  0.18962622300549092  1.0000
  C   C15       1.0  0.633248686641961  0.161701165210798  0.6896262230972741  1.0000
  C   C16       1.0  0.8667513133877867  0.161701165210798  0.8103737766670583  1.0000
  C   C17       1.0  0.8665065611529394  0.9139192519798812  0.3097396262344799  1.0000
  C   C18       1.0  0.6334934384976715  0.9139192519798812  0.19026037358525935  1.0000
  C   C19       1.0  0.13349343863549964  0.0860807478047121  0.690260373948657  1.0000
  C   C20       1.0  0.36650656127285347  0.0860807478047121  0.80973962608729  1.0000
  C   C21       1.0  0.8851815772092939  0.9559952241350751  0.2472639839753794  1.0000
  C   C22       1.0  0.6148184231892375  0.9559952241350751  0.25273601635537674  1.0000
  C   C23       1.0  0.11481842330915147  0.04400477564951826  0.7527360162081868  1.0000
  C   C24       1.0  0.38518157732920794  0.04400477564951826  0.7472639838281895  1.0000
  C   C25       1.0  0.883075668649436  0.062035112959842625  0.24912652427738374  1.0000
  C   C26       1.0  0.6169243310011749  0.062035112959842625  0.25087347554235556  1.0000
  C   C27       1.0  0.11692433113900301  0.9379648868247507  0.7508734759057532  1.0000
  C   C28       1.0  0.38307566876935006  0.9379648868247507  0.7491265241301938  1.0000
  C   C29       1.0  0.8627053352738367  0.09849919672665672  0.31294776428027143  1.0000
  C   C30       1.0  0.6372946643946882  0.09849919672665672  0.1870522360500555  1.0000
  C   C31       1.0  0.13729466451460232  0.9015008030579366  0.6870522359028656  1.0000
  C   C32       1.0  0.3627053353937508  0.9015008030579366  0.8129477641330815  1.0000
  C   C33       1.0  0.621176882238686  0.4939634688275541  0.43086600719085516  1.0000
  C   C34       1.0  0.8788231181598454  0.4939634688275541  0.06913399313990096  1.0000
  C   C35       1.0  0.3788231182797594  0.5060365309570392  0.5691339929927111  1.0000
  C   C36       1.0  0.12117688235860002  0.5060365309570392  0.9308660070436653  1.0000
  C   C37       1.0  0.6186514110737974  0.5801536518108736  0.4698907932385266  1.0000
  C   C38       1.0  0.8813485893068197  0.5801536518108736  0.03010920658164188  1.0000
  C   C39       1.0  0.38134858871464156  0.41984634871845533  0.5301092069446103  1.0000
  C   C40       1.0  0.11865141119371161  0.41984634871845533  0.9698907930913366  1.0000
  C   C41       1.0  0.6104313625170985  0.6720299182154352  0.43756066759745116  1.0000
  C   C42       1.0  0.8895686378814327  0.6720299182154352  0.06243933273330501  1.0000
  C   C43       1.0  0.3895686380013468  0.3279700815691581  0.5624393325861151  1.0000
  C   C44       1.0  0.11043136190700634  0.3279700815691581  0.9375606674498319  1.0000
  C   C45       1.0  0.6054039495836019  0.6756944599367922  0.3664395743163098  1.0000
  C   C46       1.0  0.8945960500849229  0.6756944599367922  0.1335604260140171  1.0000
  C   C47       1.0  0.39459605020483707  0.324305539847801  0.6335604258668271  1.0000
  C   C48       1.0  0.10540394970351605  0.324305539847801  0.8664395741691197  1.0000
  C   C49       1.0  0.6076989496568405  0.5880397178255314  0.3296781247721745  1.0000
  C   C50       1.0  0.8923010499937705  0.5880397178255314  0.17032187504756477  1.0000
  C   C51       1.0  0.39230105013159855  0.41196028270379753  0.6703218754109624  1.0000
  C   C52       1.0  0.10769894977675457  0.41196028270379753  0.8296781246249846  1.0000
  C   C53       1.0  0.6157190785771672  0.40722606601179445  0.3202092205257693  1.0000
  C   C54       1.0  0.8842809210734437  0.40722606601179445  0.17979077929397  1.0000
  C   C55       1.0  0.3842809211933577  0.5927739337727989  0.67979077914678  1.0000
  C   C56       1.0  0.1157190787149954  0.5927739337727989  0.8202092208891669  1.0000
  C   C57       1.0  0.11959658687498781  0.24382052115755382  0.4319006196840282  1.0000
  C   C58       1.0  0.3804034133842349  0.24382052115755382  0.06809938040775491  1.0000
  C   C59       1.0  0.8804034129134513  0.7561794786270395  0.5680993804991088  1.0000
  C   C60       1.0  0.6195965871342105  0.7561794786270395  0.9319006197758113  1.0000
  C   C61       1.0  0.1164967650830268  0.15424797231842757  0.4672918146894128  1.0000
  C   C62       1.0  0.38350323444618956  0.15424797231842757  0.03270818540194116  1.0000
  C   C63       1.0  0.8835032347054123  0.8457520274661657  0.5327081854937242  1.0000
  C   C64       1.0  0.6164967653422494  0.8457520274661657  0.9672918147811957  1.0000
  C   C65       1.0  0.10888315854898592  0.06541600051540408  0.4312727860303045  1.0000
  C   C66       1.0  0.3911168409802304  0.06541600051540408  0.06872721406104929  1.0000
  C   C67       1.0  0.891116841221539  0.9345839992691893  0.5687272136422448  1.0000
  C   C68       1.0  0.6088831588082085  0.9345839992691893  0.9312727861220876  1.0000
  C   C69       1.0  0.10505579318716585  0.06833585574939731  0.36004130491011993  1.0000
  C   C70       1.0  0.3949442070720568  0.06833585574939731  0.13995869518166315  1.0000
  C   C71       1.0  0.8949442066012732  0.931664144035196  0.639958695273017  1.0000
  C   C72       1.0  0.6050557934284746  0.931664144035196  0.8600413044913154  1.0000
  C   C73       1.0  0.10837654964301024  0.15876743331762622  0.32688060292988935  1.0000
  C   C74       1.0  0.3916234498682921  0.15876743331762622  0.17311939665087694  1.0000
  C   C75       1.0  0.8916234501275148  0.8412325664669671  0.67311939674266  1.0000
  C   C76       1.0  0.608376549902233  0.8412325664669671  0.8268806030216723  1.0000
  C   C77       1.0  0.11683663583263779  0.34003514523787054  0.3251449870359403  1.0000
  C   C78       1.0  0.38316336367866455  0.34003514523787054  0.1748550125448259  1.0000
  C   C79       1.0  0.8831633639378872  0.6599648545467228  0.6748550126366091  1.0000
  C   C80       1.0  0.6168366360918605  0.6599648545467228  0.8251449871277234  1.0000
  C   C81       1.0  0.6091488389609281  0.9953730280036808  0.4458016694727693  1.0000
  C   C82       1.0  0.8908511606896828  0.9953730280036808  0.05419833034697006  1.0000
  C   C83       1.0  0.3908511608275109  0.004626971780912572  0.5541983307103677  1.0000
  C   C84       1.0  0.10914883908084216  0.004626971780912572  0.9458016693255792  1.0000
  C   C85       1.0  0.6137906456908151  0.10073928407901761  0.4610671278018031  1.0000
  C   C86       1.0  0.8862093546898021  0.10073928407901761  0.03893287201836543  1.0000
  C   C87       1.0  0.38620935480971624  0.8992607157055758  0.5389328718711754  1.0000
  C   C88       1.0  0.11379064581072919  0.8992607157055758  0.961067127654613  1.0000
  C   C89       1.0  0.11366383141557379  0.7412439625077433  0.45110359802540195  1.0000
  C   C90       1.0  0.3863361681136426  0.7412439625077433  0.048896402065952  1.0000
  C   C91       1.0  0.8863361683728652  0.25875603727685  0.548896402157735  1.0000
  C   C92       1.0  0.6136638316747964  0.25875603727685  0.9511035981171848  1.0000
  C   C93       1.0  0.117139427399633  0.6337346911177014  0.44923564062828836  1.0000
  C   C94       1.0  0.3828605721116693  0.6337346911177014  0.05076435895247783  1.0000
  C   C95       1.0  0.882860572370892  0.3662653086668919  0.550764359044261  1.0000
  C   C96       1.0  0.6171394276588557  0.3662653086668919  0.9492356407200714  1.0000
  N   N1        1.0  0.6145686292281107  0.49834885879317686  0.36154729323783513  1.0000
  N   N2        1.0  0.8854313711704204  0.49834885879317686  0.138452707092921  1.0000
  N   N3        1.0  0.3854313712903346  0.5016511409914164  0.6384527069457311  1.0000
  N   N4        1.0  0.11456862934802485  0.5016511409914164  0.8615472930906451  1.0000
  N   N5        1.0  0.11494722165568645  0.24544612192027052  0.36253218100455004  1.0000
  N   N6        1.0  0.38505277787352993  0.24544612192027052  0.13746781908680386  1.0000
  N   N7        1.0  0.8850527781327525  0.7545538778643228  0.637467819178587  1.0000
  N   N8        1.0  0.6149472219149091  0.7545538778643228  0.8625321810963331  1.0000
  N   N9        1.0  0.6047311155264693  0.9107439434845692  0.4329203636871246  1.0000
  N   N10       1.0  0.895268884854148  0.9107439434845692  0.06707963613304391  1.0000
  N   N11       1.0  0.3952688849740621  0.0892560563000242  0.567079635985854  1.0000
  N   N12       1.0  0.10473111493429102  0.0892560563000242  0.932920364050093  1.0000
  N   N13       1.0  0.11060478513074087  0.8279495531959083  0.4528931546108893  1.0000
  N   N14       1.0  0.38939521511056774  0.8279495531959083  0.04710684497030609  1.0000
  N   N15       1.0  0.8893952153697904  0.172050446588685  0.5471068450620892  1.0000
  N   N16       1.0  0.6106047846599573  0.172050446588685  0.9528931547022433  1.0000
  S   S1        1.0  0.3451956844285872  0.7453944613630653  0.36905520495790517  1.0000
  S   S2        1.0  0.15480431583063547  0.7453944613630653  0.13094479513387794  1.0000
  S   S3        1.0  0.654804316071944  0.254605538421528  0.6309447947150735  1.0000
  S   S4        1.0  0.8451956839578035  0.254605538421528  0.869055205049259  1.0000
  S   S5        1.0  0.8463974563938187  0.003839431715356717  0.37081303670194943  1.0000
  S   S6        1.0  0.6536025432747062  0.003839431715356717  0.1291869636283775  1.0000
  S   S7        1.0  0.15360254339462034  0.9961605688139723  0.6291869634811875  1.0000
  S   S8        1.0  0.34639745651373277  0.9961605688139723  0.8708130365547596  1.0000
  Cl  Cl1       1.0  0.6317979389380597  0.3798051306181342  0.46814386072345926  1.0000
  Cl  Cl2       1.0  0.8682020607125513  0.3798051306181342  0.031856139096279996  1.0000
  Cl  Cl3       1.0  0.3682020608324653  0.6201948699111947  0.5318561389490901  1.0000
  Cl  Cl4       1.0  0.13179793907588783  0.6201948699111947  0.968143861086857  1.0000
  Cl  Cl5       1.0  0.12727657999991193  0.3536249985294024  0.47488121514740395  1.0000
  Cl  Cl6       1.0  0.3727234195293044  0.3536249985294024  0.025118784943949927  1.0000
  Cl  Cl7       1.0  0.8727234197885272  0.6463750012551909  0.5251187850357331  1.0000
  Cl  Cl8       1.0  0.6272765802591347  0.6463750012551909  0.9748812152391871  1.0000
  I   I1        1.0  0.35687363409978656  0.5011885186592571  0.3340313451874335  1.0000
  I   I2        1.0  0.1431263661594361  0.5011885186592571  0.16596865490434964  1.0000
  I   I3        1.0  0.6431263656886523  0.49881148112533635  0.6659686549957035  1.0000
  I   I4        1.0  0.8568736343590092  0.49881148112533635  0.8340313452792165  1.0000
  I   I5        1.0  0.36151513075004293  0.9891791369047986  0.33777659764542267  1.0000
  I   I6        1.0  0.13848486949126576  0.9891791369047986  0.16222340193577275  1.0000
  I   I7        1.0  0.6384848690204822  0.010820862879794654  0.6622234020271266  1.0000
  I   I8        1.0  0.8615151310092656  0.010820862879794654  0.8377765977372058  1.0000
  I   I9        1.0  0.3823803904845909  0.24727703661734873  0.3694184681527845  1.0000
  I   I10       1.0  0.11761960977463184  0.24727703661734873  0.1305815319389986  1.0000
  I   I11       1.0  0.6176196100159405  0.7527229631672446  0.630581531520194  1.0000
  I   I12       1.0  0.8823803900138072  0.7527229631672446  0.8694184682441384  1.0000
  I   I13       1.0  0.8615421098351618  0.7618256620916374  0.3340661298721142  1.0000
  I   I14       1.0  0.6384578898154493  0.7618256620916374  0.1659338699476251  1.0000
  I   I15       1.0  0.13845788993536334  0.23817433769295593  0.6659338698004351  1.0000
  I   I16       1.0  0.3615421099729898  0.23817433769295593  0.8340661302355119  1.0000
  I   I17       1.0  0.8560045997643908  0.2486885057757273  0.3418239569195716  1.0000
  I   I18       1.0  0.6439953998862201  0.2486885057757273  0.15817604290016762  1.0000
  I   I19       1.0  0.14399540002404823  0.7513114947536016  0.6581760432635653  1.0000
  I   I20       1.0  0.3560045998843049  0.7513114947536016  0.8418239567723818  1.0000
  I   I21       1.0  0.8791123706508063  0.5057786036839246  0.3686608641423306  1.0000
  I   I22       1.0  0.6208876289998047  0.5057786036839246  0.13133913567740865  1.0000
  I   I23       1.0  0.12088762913763276  0.4942213961006688  0.6313391360408064  1.0000
  I   I24       1.0  0.37911237077072035  0.4942213961006688  0.8686608639951406  1.0000
